                                   MODFLOW 6
                U.S. GEOLOGICAL SURVEY MODULAR HYDROLOGIC MODEL
                            VERSION 6.2.0 10/22/2020

   MODFLOW 6 compiled Oct 29 2020 12:19:52 with IFORT compiler (ver. 19.10.3)

This software has been approved for release by the U.S. Geological 
Survey (USGS). Although the software has been subjected to rigorous 
review, the USGS reserves the right to update the software as needed 
pursuant to further analysis and review. No warranty, expressed or 
implied, is made by the USGS or the U.S. Government as to the 
functionality of the software and related material nor shall the 
fact of release constitute any such warranty. Furthermore, the 
software is released on condition that neither the USGS nor the U.S. 
Government shall be held liable for any damages resulting from its 
authorized or unauthorized use. Also refer to the USGS Water 
Resources Software User Rights Notice for complete use, copyright, 
and distribution information.


System command used to initiate simulation:
/Users/aleaf/Documents/GitHub/modflow-setup/bin/mac/mf6

MODFLOW was compiled using uniform precision.

Real Variables
  KIND: 8
  TINY (smallest non-zero value):    2.225074-308
  HUGE (largest value):    1.797693+308
  PRECISION: 15
  BIT SIZE: 64

Integer Variables
  KIND: 4
  HUGE (largest value): 2147483647
  BIT SIZE: 32

Long Integer Variables
  KIND: 8
  HUGE (largest value): 9223372036854775807
  BIT SIZE: 64

Logical Variables
  KIND: 4
  BIT SIZE: 32
 

 OPENED mfsim.nam
 FILE TYPE:NAM   UNIT 1001   STATUS:OLD                 
 FORMAT:FORMATTED              ACCESS:SEQUENTIAL          
 ACTION:READ                

 # shellmound model version 0.post258.dev0+g2de0f7d
 # File generated by Flopy version 3.3.4 on 05/19/2021 at 11:49:15.
 # via modflow-setup version 0.post258.dev0+g2de0f7d at 2021-05-19 11:49:16

 READING SIMULATION OPTIONS
    SIMULATION WILL CONTINUE EVEN IF THERE IS NONCONVERGENCE.
 END OF SIMULATION OPTIONS

 READING SIMULATION TIMING

 OPENED mfsim.tdis
 FILE TYPE:TDIS   UNIT 1002   STATUS:OLD                 
 FORMAT:FORMATTED              ACCESS:SEQUENTIAL          
 ACTION:READ                


 TDIS -- TEMPORAL DISCRETIZATION PACKAGE,
 VERSION 1 : 11/13/2014 - INPUT READ FROM UNIT 1002
 # shellmound model version 0.post258.dev0+g2de0f7d
 # File generated by Flopy version 3.3.4 on 05/19/2021 at 11:49:15.
 # via modflow-setup version 0.post258.dev0+g2de0f7d at 2021-05-19 11:49:16
 PROCESSING TDIS OPTIONS
    SIMULATION TIME UNIT IS DAYS
    SIMULATION STARTING DATE AND TIME IS 1998-04-01                    
 END OF TDIS OPTIONS
 PROCESSING TDIS DIMENSIONS
   19 STRESS PERIOD(S) IN SIMULATION
 END OF TDIS DIMENSIONS
 # perlen nstp tsmult
 PROCESSING TDIS PERIODDATA


 STRESS PERIOD     LENGTH       TIME STEPS     MULTIPLIER FOR DELT
 ----------------------------------------------------------------------------
        1         1.000000          1                    1.000
        2         3287.000         10                    1.500
        3         183.0000          5                    1.500
        4         183.0000          5                    1.500
        5         183.0000          5                    1.500
        6         182.0000          5                    1.500
        7         183.0000          5                    1.500
        8         182.0000          5                    1.500
        9         183.0000          5                    1.500
       10         182.0000          5                    1.500
       11         183.0000          5                    1.500
       12         183.0000          5                    1.500
       13         183.0000          5                    1.500
       14         182.0000          5                    1.500
       15         183.0000          5                    1.500
       16         182.0000          5                    1.500
       17         183.0000          5                    1.500
       18         182.0000          5                    1.500
       19         183.0000          5                    1.500
 END OF TDIS PERIODDATA
 END OF SIMULATION TIMING

 READING SIMULATION MODELS
    GWF6 model SHELLMOUND will be created as model 1
 END OF SIMULATION MODELS

 READING SIMULATION EXCHANGES
 END OF SIMULATION EXCHANGES

 READING SOLUTIONGROUP

 Creating solution: SLN_1           

 OPENED mfsim.ims
 FILE TYPE:IMS   UNIT 1014   STATUS:OLD                 
 FORMAT:FORMATTED              ACCESS:SEQUENTIAL          
 ACTION:READ                

 END OF SIMULATION SOLUTIONGROUP

 IMS -- ITERATIVE MODEL SOLUTION PACKAGE, VERSION 6, 4/28/2017
         INPUT READ FROM UNIT 1014
 # shellmound model version 0.post258.dev0+g2de0f7d
 # File generated by Flopy version 3.3.4 on 05/19/2021 at 11:49:15.
 # via modflow-setup version 0.post258.dev0+g2de0f7d at 2021-05-19 11:49:16

 PROCESSING IMS OPTIONS
 MODERATE OPTION:
 DEFAULT SOLVER INPUT VALUES REFLECT MODERETELY NONLINEAR MODEL
 END OF IMS OPTIONS

 PROCESSING IMS NONLINEAR
 END OF IMS NONLINEAR DATA
 **UNDER-RELAXATION WILL BE USED***
 
 ***IMS LINEAR SOLVER WILL BE USED***

 IMSLINEAR -- UNSTRUCTURED LINEAR SOLUTION PACKAGE, VERSION 8, 04/28/2017

 PROCESSING LINEAR DATA
 END OF LINEAR DATA
 
 OUTER ITERATION CONVERGENCE CRITERION    (DVCLOSE) =    0.100000E+00
 MAXIMUM NUMBER OF OUTER ITERATIONS        (MXITER) = 200
 SOLVER PRINTOUT INDEX                     (IPRIMS) = 2
 NONLINEAR ITERATION METHOD            (NONLINMETH) = 3
 LINEAR SOLUTION METHOD                   (LINMETH) = 1
 UNDER-RELAXATION WEIGHT REDUCTION FACTOR   (THETA) =    0.700000E+00
 UNDER-RELAXATION WEIGHT INCREASE INCREMENT (KAPPA) =    0.100000E+00
 UNDER-RELAXATION PREVIOUS HISTORY FACTOR   (GAMMA) =    0.000000E+00
 UNDER-RELAXATION MOMENTUM TERM         (AMOMENTUM) =    0.000000E+00

       SOLUTION BY THE BICONJUGATE-GRADIENT STABILIZED METHOD
 ------------------------------------------------------------------
 MAXIMUM OF 200 CALLS OF SOLUTION ROUTINE
 MAXIMUM OF 100 INTERNAL ITERATIONS PER CALL TO SOLUTION ROUTINE
 LINEAR ACCELERATION METHOD            = BCGS      
 MATRIX PRECONDITIONING TYPE           = INCOMPLETE LUT      
 MATRIX SCALING APPROACH               = NO SCALING          
 MATRIX REORDERING APPROACH            = ORIGINAL ORDERING        
 NUMBER OF ORTHOGONALIZATIONS          = 0
 HEAD CHANGE CRITERION FOR CLOSURE     =    0.10000E-01
 RESIDUAL CHANGE CRITERION FOR CLOSURE =    0.10000E-03
 RESIDUAL CONVERGENCE OPTION           = 3
 RESIDUAL CONVERGENCE NORM             = RELATIVE L2NORM 
 RELAXATION FACTOR                     =    0.00000E+00
 NUMBER OF LEVELS                      =              7
 DROP TOLERANCE                        =    0.10000E-02


1
                            STRESS PERIOD NO.    1, LENGTH =   1.000000    
                            -----------------------------------------------

                              NUMBER OF TIME STEPS =     1

                               MULTIPLIER FOR DELT =     1.000

                            INITIAL TIME STEP SIZE =   1.000000    



 PSEUDO-TRANSIENT CONTINUATION WILL BE APPLIED TO MODEL 1 ("SHELLMOUND") DURING THIS TIME STEP

 OUTER ITERATION SUMMARY
 ----------------------------------------------------------------------------------------------------------
                                OUTER      INNER                    STEP   MAXIMUM CHANGE MODEL-(CELLID) OR
 OUTER ITERATION STEP       ITERATION  ITERATION  MAXIMUM CHANGE SUCCESS             MODEL-PACKAGE-(NUMBER)
 ----------------------------------------------------------------------------------------------------------
 Model                              1          1      0.86989189                            1_GWF-(4,16,15)
 Model                              2          2       1.0471811                            1_GWF-(4,16,15)
 Model                              3          2       1.0122576                           1_GWF-(13,16,15)
 Model                              4          2      0.92580331                           1_GWF-(13,16,15)
 Model                              5          2      0.80703355                           1_GWF-(13,16,15)
 Model                              6          2      0.66559476                           1_GWF-(13,16,15)
 Model                              7          2      0.63836154                            1_GWF-(13,11,6)
 Model                              8          2      0.59946188                            1_GWF-(13,11,7)
 Model                              9          2      0.58273685                            1_GWF-(13,11,7)
 Model                             10          3      0.53115249                            1_GWF-(13,11,7)
 Model                             11          3      0.51463500                            1_GWF-(13,13,9)
 Model                             12          3      0.51220030                            1_GWF-(13,13,9)
 Model                             13          3      0.49700612                            1_GWF-(13,13,9)
 Model                             14          3     -0.48238045                            1_GWF-(13,19,3)
 Model                             15          3     -0.45845459                             1_GWF-(13,2,6)
 Model                             16          3     -0.43995639                              1_GWF-(4,1,5)
 Model                             17          3     -0.47164531                              1_GWF-(4,1,5)
 Model                             18          3     -0.58618386                              1_GWF-(4,1,5)
 Model                             19          3     -0.56151104                              1_GWF-(4,1,5)
 Model                             20          4     -0.53130980                              1_GWF-(4,1,5)
 Model                             21          4     -0.48555685                             1_GWF-(13,2,4)
 Model                             22          3     -0.40135536                             1_GWF-(13,2,4)
 Model                             23          4     -0.40439659                             1_GWF-(13,2,4)
 Model                             24          4     -0.24269515                             1_GWF-(13,2,4)
 Model                             25          5     -0.40637043                             1_GWF-(13,2,4)
 Model                             26          5     -0.27779146                            1_GWF-(13,1,20)
 Model                             27          5     -0.18726133                            1_GWF-(13,1,21)
 Model                             28          3     -0.11435292                            1_GWF-(13,1,21)
 Model                             29          3     -0.10303320                            1_GWF-(13,1,21)
 Model                             30          4     -0.10403418                            1_GWF-(13,1,22)
 Model                             31          3 -2.73590072E-02       *                    1_GWF-(13,1,21)
 Package                           31                  2.1832797                    1_GWF-SFR_0-(83)-inflow
 Model                             32          1 -1.39502072E-03       *                     1_GWF-(6,1,23)
 Package                           32                 0.80869289                    1_GWF-SFR_0-(83)-inflow
 Model                             33          1 -1.15188651E-03       *                    1_GWF-(13,1,23)
 Package                           33                 0.16401658                   1_GWF-SFR_0-(180)-inflow
 Model                             34          1 -8.62096555E-04       *                    1_GWF-(11,22,8)
 Package                           34             7.12799778E-02       *           1_GWF-SFR_0-(180)-inflow
 ----------------------------------------------------------------------------------------------------------


 34 CALLS TO NUMERICAL SOLUTION IN TIME STEP 1 STRESS PERIOD 1
 97 TOTAL ITERATIONS

 INNER ITERATION SUMMARY
 --------------------------------------------------------------------------------------------------------------------------------------
      TOTAL      OUTER      INNER                                                            MAXIMUM                                   
  ITERATION  ITERATION  ITERATION  MAXIMUM CHANGE      MAXIMUM CHANGE MODEL-(CELLID)        RESIDUAL    MAXIMUM RESIDUAL MODEL-(CELLID)
 --------------------------------------------------------------------------------------------------------------------------------------
          1          1          1      0.86989189                    1_GWF-(4,16,15)       21.555856                    1_GWF-(6,27,32)
          2          2          1       1.0471751                    1_GWF-(4,16,15)      -123.76851                    1_GWF-(6,19,31)
          3          2          2 -1.09656673E-03                    1_GWF-(6,27,32)     -0.22168372                    1_GWF-(6,18,32)
          4          3          1       1.0122349                   1_GWF-(13,16,15)      -154.99068                    1_GWF-(6,19,31)
          5          3          2 -1.66573218E-03                    1_GWF-(6,27,32)     -0.48637104                     1_GWF-(6,8,30)
          6          4          1      0.92570020                   1_GWF-(13,16,15)      -149.12688                    1_GWF-(6,19,31)
          7          4          2  2.07461376E-03                      1_GWF-(9,9,5)     -0.60849686                     1_GWF-(6,7,29)
          8          5          1      0.80675129                   1_GWF-(13,16,15)      -161.24781                     1_GWF-(10,8,4)
          9          5          2  2.78381764E-03                      1_GWF-(9,9,5)     -0.71053176                    1_GWF-(6,16,32)
         10          6          1      0.66503174                   1_GWF-(13,16,15)      -163.71312                     1_GWF-(10,8,4)
         11          6          2  3.45416214E-03                     1_GWF-(10,9,5)      -1.0754568                     1_GWF-(6,5,27)
         12          7          1      0.63515794                    1_GWF-(13,11,6)       180.14683                     1_GWF-(7,6,27)
         13          7          2  4.74807473E-03                     1_GWF-(12,9,5)      -2.0999919                     1_GWF-(6,5,27)
         14          8          1      0.59570042                    1_GWF-(13,11,7)       170.21477                     1_GWF-(7,6,27)
         15          8          2  4.94836970E-03                     1_GWF-(12,9,5)      -2.9696101                     1_GWF-(6,5,27)
         16          9          1      0.57696160                    1_GWF-(13,11,7)      -180.45161                    1_GWF-(11,14,8)
         17          9          2  6.68141929E-03                    1_GWF-(12,10,5)      -4.3127074                     1_GWF-(6,5,27)
         18         10          1      0.52321109                    1_GWF-(13,11,7)      -237.29989                    1_GWF-(6,26,33)
         19         10          2  1.00044469E-02                     1_GWF-(11,9,4)      -5.6860974                     1_GWF-(6,5,32)
         20         10          3  3.03347698E-04                     1_GWF-(6,9,32)     -0.48868846                     1_GWF-(6,3,32)
         21         11          1      0.50231649                    1_GWF-(13,13,9)      -313.87573                    1_GWF-(6,26,33)
         22         11          2  1.56369674E-02                     1_GWF-(11,9,4)      -8.9783165                     1_GWF-(6,7,32)
         23         11          3  5.87889927E-04                     1_GWF-(6,9,32)     -0.98287396                     1_GWF-(6,3,32)
         24         12          1      0.49753562                    1_GWF-(13,13,9)      -324.98786                    1_GWF-(6,26,33)
         25         12          2  1.94344456E-02                     1_GWF-(11,9,4)      -10.788698                     1_GWF-(6,7,32)
         26         12          3  8.47174332E-04                     1_GWF-(6,9,32)      -1.3636574                     1_GWF-(6,7,32)
         27         13          1      0.47957432                    1_GWF-(13,13,9)      -326.49426                    1_GWF-(6,26,33)
         28         13          2  2.39629315E-02                     1_GWF-(11,9,4)      -13.546286                     1_GWF-(6,7,32)
         29         13          3  1.29604419E-03                     1_GWF-(6,9,32)      -2.0701879                     1_GWF-(6,7,32)
         30         14          1     -0.46854482                     1_GWF-(13,1,9)      -325.37498                    1_GWF-(6,26,33)
         31         14          2  2.93502421E-02                     1_GWF-(11,9,4)      -18.151815                     1_GWF-(6,9,31)
         32         14          3  2.14281597E-03                     1_GWF-(6,9,32)      -3.0155647                     1_GWF-(6,9,31)
         33         15          1      0.43549882                     1_GWF-(13,9,3)      -289.53935                    1_GWF-(11,16,9)
         34         15          2 -3.77828637E-02                      1_GWF-(9,3,4)      -23.902069                     1_GWF-(6,8,32)
         35         15          3  3.00740234E-03                     1_GWF-(6,8,32)      -5.5967138                     1_GWF-(6,8,32)
         36         16          1      0.40295448                    1_GWF-(13,10,3)       411.72914                    1_GWF-(7,19,18)
         37         16          2 -4.58606710E-02                      1_GWF-(9,3,4)      -21.991511                     1_GWF-(6,8,32)
         38         16          3  3.09001234E-03                     1_GWF-(6,9,32)      -5.4997680                     1_GWF-(6,8,32)
         39         17          1     -0.42263936                      1_GWF-(4,1,5)       690.88219                    1_GWF-(7,19,18)
         40         17          2 -5.67346920E-02                      1_GWF-(9,3,4)       23.782101                    1_GWF-(11,20,6)
         41         17          3  3.37550456E-03                     1_GWF-(6,9,32)      -5.9504109                     1_GWF-(6,8,32)
         42         18          1     -0.51624245                      1_GWF-(4,1,5)       244.92234                    1_GWF-(11,14,9)
         43         18          2 -8.04337089E-02                      1_GWF-(9,3,4)       42.514579                    1_GWF-(11,20,6)
         44         18          3 -7.98288332E-03                      1_GWF-(9,3,4)       11.556642                     1_GWF-(10,9,3)
         45         19          1     -0.46793537                      1_GWF-(4,1,5)       335.04258                    1_GWF-(5,12,16)
         46         19          2     -0.10377272                      1_GWF-(9,2,4)       43.164296                    1_GWF-(11,21,6)
         47         19          3 -8.89985522E-03                      1_GWF-(9,3,4)       12.172937                     1_GWF-(10,9,3)
         48         20          1     -0.42079172                      1_GWF-(4,1,5)      -462.40159                   1_GWF-(10,18,21)
         49         20          2     -0.12518897                      1_GWF-(9,2,4)       42.013682                    1_GWF-(11,21,6)
         50         20          3 -1.03264112E-02                      1_GWF-(9,4,3)       12.656687                     1_GWF-(10,9,3)
         51         20          4 -3.08755703E-03                    1_GWF-(10,23,6)       3.4972510                    1_GWF-(11,20,6)
         52         21          1     -0.35306738                      1_GWF-(4,1,5)      -685.43702                   1_GWF-(10,18,21)
         53         21          2     -0.13207550                      1_GWF-(9,2,4)       38.230988                    1_GWF-(11,21,6)
         54         21          3 -1.06287806E-02                      1_GWF-(9,4,3)       10.781614                     1_GWF-(10,9,3)
         55         21          4 -3.75418195E-03                    1_GWF-(10,23,7)      -3.9174952                      1_GWF-(9,2,5)
         56         22          1     -0.28470978                     1_GWF-(13,2,4)       632.16801                    1_GWF-(9,18,21)
         57         22          2     -0.10987841                      1_GWF-(9,3,3)       30.474704                    1_GWF-(11,21,6)
         58         22          3 -9.29142829E-03                      1_GWF-(9,2,4)       8.7195134                    1_GWF-(11,21,6)
         59         23          1     -0.25346660                     1_GWF-(13,2,4)      -547.93010                   1_GWF-(11,24,21)
         60         23          2     -0.13552779                      1_GWF-(9,3,3)       38.397745                      1_GWF-(9,3,5)
         61         23          3 -1.63744665E-02                      1_GWF-(9,2,4)       11.505610                    1_GWF-(11,21,6)
         62         23          4 -6.61084860E-03                    1_GWF-(11,23,7)       3.7592753                      1_GWF-(9,2,6)
         63         24          1     -0.18440444                     1_GWF-(13,2,4)       391.82473                   1_GWF-(10,24,21)
         64         24          2 -5.90942234E-02                      1_GWF-(9,3,3)       21.919877                      1_GWF-(9,2,4)
         65         24          3 -1.05258682E-02                    1_GWF-(13,2,19)       5.2179676                    1_GWF-(11,20,7)
         66         24          4 -2.27952944E-03                    1_GWF-(10,23,8)       1.3507304                    1_GWF-(11,21,6)
         67         25          1     -0.34808148                    1_GWF-(13,2,20)       144.17627                     1_GWF-(6,4,27)
         68         25          2     -0.12351789                     1_GWF-(13,3,3)       63.962820                      1_GWF-(9,3,5)
         69         25          3 -5.33014225E-02                      1_GWF-(9,2,4)       22.468911                    1_GWF-(11,20,8)
         70         25          4 -2.13388122E-02                    1_GWF-(11,23,8)       11.257297                    1_GWF-(11,20,7)
         71         25          5 -5.56959199E-03                    1_GWF-(11,22,8)       6.5982402                    1_GWF-(11,20,7)
         72         26          1     -0.23695275                    1_GWF-(13,1,20)       111.36512                     1_GWF-(7,3,26)
         73         26          2 -9.19808029E-02                     1_GWF-(13,2,4)       54.558687                     1_GWF-(6,5,27)
         74         26          3 -3.71201255E-02                      1_GWF-(9,2,4)       23.401044                    1_GWF-(11,20,7)
         75         26          4 -2.47305513E-02                    1_GWF-(11,23,7)       11.253544                    1_GWF-(11,19,8)
         76         26          5 -3.62419993E-03                    1_GWF-(11,22,8)       6.9227691                    1_GWF-(11,20,7)
         77         27          1     -0.15548513                    1_GWF-(13,1,21)       83.439656                     1_GWF-(7,4,26)
         78         27          2 -4.28526477E-02                    1_GWF-(13,3,20)       35.143064                     1_GWF-(6,5,27)
         79         27          3 -1.78882506E-02                    1_GWF-(11,23,7)       15.455866                    1_GWF-(11,20,7)
         80         27          4 -1.60976341E-02                    1_GWF-(11,23,7)      -8.7979417                     1_GWF-(7,3,26)
         81         27          5 -2.68555782E-03                    1_GWF-(11,22,7)      -6.4399042                     1_GWF-(6,4,27)
         82         28          1 -9.85657787E-02                    1_GWF-(13,1,21)       57.129390                     1_GWF-(7,4,26)
         83         28          2 -2.14275661E-02                    1_GWF-(11,3,26)       22.886998                     1_GWF-(7,4,26)
         84         28          3 -7.93633551E-03                    1_GWF-(11,23,8)       12.390924                    1_GWF-(11,20,7)
         85         29          1 -7.80934414E-02                    1_GWF-(13,1,21)       52.172612                     1_GWF-(7,4,26)
         86         29          2 -2.87893583E-02                    1_GWF-(11,3,26)       21.413711                     1_GWF-(6,4,28)
         87         29          3 -6.96895600E-03                    1_GWF-(11,3,27)       9.2742017                    1_GWF-(11,20,7)
         88         30          1 -5.38198726E-02                    1_GWF-(12,1,21)       38.214298                     1_GWF-(7,4,26)
         89         30          2 -7.49092264E-02                    1_GWF-(13,2,21)       25.968910                     1_GWF-(6,5,27)
         90         30          3  2.40464948E-02                    1_GWF-(13,2,20)       9.2549946                    1_GWF-(11,20,7)
         91         30          4 -7.14382994E-03                    1_GWF-(11,22,7)      -8.7342090                     1_GWF-(7,4,26)
         92         31          1 -1.31364912E-02                    1_GWF-(12,1,21)       5.8058136                    1_GWF-(11,20,7)
         93         31          2 -1.31319590E-02                    1_GWF-(13,2,20)       7.0972300                     1_GWF-(7,4,26)
         94         31          3 -3.25305021E-03                    1_GWF-(11,22,8)       3.3642333                    1_GWF-(11,20,7)
         95         32          1 -1.39502072E-03                     1_GWF-(6,1,23)       3.7616166                     1_GWF-(7,4,26)
         96         33          1 -1.15188651E-03                    1_GWF-(13,1,23)       3.3405180                     1_GWF-(7,4,26)
         97         34          1 -8.62096555E-04                    1_GWF-(11,22,8)       2.9879165                    1_GWF-(11,20,7)
 --------------------------------------------------------------------------------------------------------------------------------------


1
                            STRESS PERIOD NO.    2, LENGTH =   3287.000    
                            -----------------------------------------------

                              NUMBER OF TIME STEPS =    10

                               MULTIPLIER FOR DELT =     1.500

                            INITIAL TIME STEP SIZE =   29.00377    

 OUTER ITERATION SUMMARY
 ----------------------------------------------------------------------------------------------------------
                                OUTER      INNER                    STEP   MAXIMUM CHANGE MODEL-(CELLID) OR
 OUTER ITERATION STEP       ITERATION  ITERATION  MAXIMUM CHANGE SUCCESS             MODEL-PACKAGE-(NUMBER)
 ----------------------------------------------------------------------------------------------------------
 Model                              1          8     -0.72933720                            1_GWF-(4,22,20)
 Model                              2          4      0.14617751                            1_GWF-(4,23,24)
 Model                              3          2  4.42163998E-02       *                    1_GWF-(4,23,24)
 Package                            3                 -621.29250                   1_GWF-SFR_0-(207)-inflow
 Model                              4          2  1.46812121E-02       *                    1_GWF-(4,23,22)
 Package                            4                 -77.493459                   1_GWF-SFR_0-(207)-inflow
 Model                              5          1  2.40889086E-03       *                   1_GWF-(11,23,11)
 Package                            5                 -9.4185642                   1_GWF-SFR_0-(207)-inflow
 Model                              6          1  1.17987767E-03       *                   1_GWF-(11,20,10)
 Package                            6                -0.80833348                   1_GWF-SFR_0-(207)-inflow
 Model                              7          1  1.00163760E-03       *                   1_GWF-(11,20,10)
 Package                            7                -0.53718506                   1_GWF-SFR_0-(180)-inflow
 Model                              8          1  6.27562658E-04       *                   1_GWF-(11,20,10)
 Package                            8                -0.50301885                   1_GWF-SFR_0-(180)-inflow
 Model                              9          1  4.96267103E-04       *                   1_GWF-(11,20,10)
 Package                            9                -0.32623823                   1_GWF-SFR_0-(180)-inflow
 Model                             10          1  3.65314603E-04       *                   1_GWF-(11,20,10)
 Package                           10                -0.27494291                   1_GWF-SFR_0-(180)-inflow
 Model                             11          1  4.59494658E-04       *                    1_GWF-(1,19,10)
 Package                           11                -0.20770428                   1_GWF-SFR_0-(180)-inflow
 Model                             12          1  1.93605737E-04       *                    1_GWF-(1,19,10)
 Package                           12                -0.26503659                   1_GWF-SFR_0-(180)-inflow
 Model                             13          1  1.30459826E-04       *                    1_GWF-(1,18,10)
 Package                           13                -0.11443803                   1_GWF-SFR_0-(180)-inflow
 Model                             14          1  8.97109491E-05       *                    1_GWF-(1,19,10)
 Package                           14            -7.85080704E-02       *           1_GWF-SFR_0-(180)-inflow
 ----------------------------------------------------------------------------------------------------------


 14 CALLS TO NUMERICAL SOLUTION IN TIME STEP 1 STRESS PERIOD 2
 26 TOTAL ITERATIONS

 INNER ITERATION SUMMARY
 --------------------------------------------------------------------------------------------------------------------------------------
      TOTAL      OUTER      INNER                                                            MAXIMUM                                   
  ITERATION  ITERATION  ITERATION  MAXIMUM CHANGE      MAXIMUM CHANGE MODEL-(CELLID)        RESIDUAL    MAXIMUM RESIDUAL MODEL-(CELLID)
 --------------------------------------------------------------------------------------------------------------------------------------
          1          1          1     -0.58601519                    1_GWF-(4,22,20)      -1068.3594                     1_GWF-(10,8,4)
          2          1          2      0.18476969                      1_GWF-(1,9,3)       270.95844                    1_GWF-(11,18,9)
          3          1          3      0.14175765                     1_GWF-(10,9,3)      -122.65372                     1_GWF-(10,8,4)
          4          1          4 -5.34149689E-02                    1_GWF-(1,19,10)       69.714367                    1_GWF-(11,18,9)
          5          1          5 -4.47828204E-02                    1_GWF-(1,19,10)       28.899887                   1_GWF-(11,18,10)
          6          1          6 -1.72991328E-02                    1_GWF-(1,20,10)       16.955640                    1_GWF-(11,18,9)
          7          1          7 -1.14184831E-02                    1_GWF-(1,20,10)       7.7126071                   1_GWF-(11,18,10)
          8          1          8 -5.15611455E-03                    1_GWF-(1,20,10)       4.1898107                    1_GWF-(11,18,9)
          9          2          1      0.13999408                    1_GWF-(4,23,24)      -96.558524                    1_GWF-(6,23,32)
         10          2          2  1.69411445E-02                   1_GWF-(11,20,10)      -32.213127                    1_GWF-(6,16,33)
         11          2          3  1.66643576E-02                    1_GWF-(1,22,11)      -17.835353                   1_GWF-(11,18,10)
         12          2          4  9.48317859E-03                   1_GWF-(11,23,11)      -7.6372475                   1_GWF-(11,18,10)
         13          3          1  4.17656039E-02                    1_GWF-(4,23,24)      -22.585128                    1_GWF-(11,21,9)
         14          3          2  6.08674756E-03                   1_GWF-(11,20,10)      -10.730554                    1_GWF-(11,19,9)
         15          4          1  1.31098498E-02                    1_GWF-(4,23,22)      -9.5253576                    1_GWF-(11,19,9)
         16          4          2  5.61154414E-03                   1_GWF-(11,20,10)      -5.6163210                   1_GWF-(11,18,10)
         17          5          1  2.40889086E-03                   1_GWF-(11,23,11)      -4.8005119                    1_GWF-(11,19,9)
         18          6          1  1.17987767E-03                   1_GWF-(11,20,10)      -3.2118832                   1_GWF-(11,18,10)
         19          7          1  1.00163760E-03                   1_GWF-(11,20,10)      -2.4983815                   1_GWF-(11,18,10)
         20          8          1  6.27562658E-04                   1_GWF-(11,20,10)      -1.7513086                   1_GWF-(11,18,10)
         21          9          1  4.96267103E-04                   1_GWF-(11,20,10)      -1.3201327                   1_GWF-(11,18,10)
         22         10          1  3.65314603E-04                   1_GWF-(11,20,10)     -0.93683199                   1_GWF-(11,18,10)
         23         11          1  4.59494658E-04                    1_GWF-(1,19,10)     -0.64134539                   1_GWF-(11,25,32)
         24         12          1  1.93605737E-04                    1_GWF-(1,19,10)     -0.35173376                   1_GWF-(11,25,32)
         25         13          1  1.30459826E-04                    1_GWF-(1,18,10)     -0.22297659                   1_GWF-(11,25,32)
         26         14          1  8.97109491E-05                    1_GWF-(1,19,10)      0.13535238                     1_GWF-(6,28,9)
 --------------------------------------------------------------------------------------------------------------------------------------



 OUTER ITERATION SUMMARY
 ----------------------------------------------------------------------------------------------------------
                                OUTER      INNER                    STEP   MAXIMUM CHANGE MODEL-(CELLID) OR
 OUTER ITERATION STEP       ITERATION  ITERATION  MAXIMUM CHANGE SUCCESS             MODEL-PACKAGE-(NUMBER)
 ----------------------------------------------------------------------------------------------------------
 Model                              1          7     -0.23320991                            1_GWF-(4,28,17)
 Model                              2          2  4.93387721E-02       *                    1_GWF-(4,23,23)
 Package                            2                  430.59237                   1_GWF-SFR_0-(180)-inflow
 Model                              3          2  1.49904784E-02       *                    1_GWF-(4,23,23)
 Package                            3                  85.372396                   1_GWF-SFR_0-(180)-inflow
 Model                              4          1  2.81624308E-03       *                    1_GWF-(4,23,23)
 Package                            4                  15.768938                   1_GWF-SFR_0-(180)-inflow
 Model                              5          1  4.06783840E-04       *                    1_GWF-(4,23,22)
 Package                            5                  2.5411420                   1_GWF-SFR_0-(180)-inflow
 Model                              6          1  2.52660872E-04       *                    1_GWF-(11,9,33)
 Package                            6                 0.69814418                   1_GWF-SFR_0-(180)-inflow
 Model                              7          1  1.98911443E-04       *                    1_GWF-(11,9,33)
 Package                            7                 0.50336885                   1_GWF-SFR_0-(180)-inflow
 Model                              8          1  1.28926925E-04       *                    1_GWF-(11,9,33)
 Package                            8                 0.28934505                   1_GWF-SFR_0-(180)-inflow
 Model                              9          1  5.95324312E-05       *                    1_GWF-(11,9,33)
 Package                            9                 0.17744084                   1_GWF-SFR_0-(180)-inflow
 Model                             10          1  2.38901420E-05       *                    1_GWF-(11,9,33)
 Package                           10             6.62921310E-02       *           1_GWF-SFR_0-(180)-inflow
 ----------------------------------------------------------------------------------------------------------


 10 CALLS TO NUMERICAL SOLUTION IN TIME STEP 2 STRESS PERIOD 2
 18 TOTAL ITERATIONS

 INNER ITERATION SUMMARY
 --------------------------------------------------------------------------------------------------------------------------------------
      TOTAL      OUTER      INNER                                                            MAXIMUM                                   
  ITERATION  ITERATION  ITERATION  MAXIMUM CHANGE      MAXIMUM CHANGE MODEL-(CELLID)        RESIDUAL    MAXIMUM RESIDUAL MODEL-(CELLID)
 --------------------------------------------------------------------------------------------------------------------------------------
          1          1          1     -0.22215824                    1_GWF-(4,28,17)       235.80870                    1_GWF-(11,21,6)
          2          1          2 -7.12943494E-02                    1_GWF-(11,22,7)      -70.242928                     1_GWF-(6,4,32)
          3          1          3 -1.88325023E-02                    1_GWF-(11,20,9)       44.461425                    1_GWF-(11,18,9)
          4          1          4 -2.05783124E-02                    1_GWF-(1,20,10)       27.133904                    1_GWF-(11,18,9)
          5          1          5 -1.24197333E-02                    1_GWF-(1,20,10)       16.216796                    1_GWF-(11,18,9)
          6          1          6 -1.15944466E-02                    1_GWF-(1,19,10)       6.3087419                    1_GWF-(11,18,9)
          7          1          7 -4.39550295E-03                    1_GWF-(1,19,10)       2.5462809                    1_GWF-(11,18,9)
          8          2          1  4.78526117E-02                    1_GWF-(4,23,23)      -8.6990724                    1_GWF-(6,13,32)
          9          2          2  2.75276339E-03                   1_GWF-(13,22,19)      -2.7739316                    1_GWF-(6,11,31)
         10          3          1  1.44018767E-02                    1_GWF-(4,23,23)       2.1761544                     1_GWF-(10,6,4)
         11          3          2  1.08815595E-03                   1_GWF-(13,22,20)      -1.1498897                    1_GWF-(6,10,32)
         12          4          1  2.81624308E-03                    1_GWF-(4,23,23)      0.96607461                    1_GWF-(11,18,9)
         13          5          1  4.06783840E-04                    1_GWF-(4,23,22)     -0.66300675                     1_GWF-(6,9,32)
         14          6          1  2.52660872E-04                    1_GWF-(11,9,33)      0.44773415                    1_GWF-(11,18,9)
         15          7          1  1.98911443E-04                    1_GWF-(11,9,33)     -0.23002059                     1_GWF-(6,9,32)
         16          8          1  1.28926925E-04                    1_GWF-(11,9,33)     -0.19694922                   1_GWF-(10,10,18)
         17          9          1  5.95324312E-05                    1_GWF-(11,9,33)  5.56783463E-02                    1_GWF-(4,21,27)
         18         10          1  2.38901420E-05                    1_GWF-(11,9,33)  3.48399443E-02                    1_GWF-(11,18,9)
 --------------------------------------------------------------------------------------------------------------------------------------



 OUTER ITERATION SUMMARY
 ----------------------------------------------------------------------------------------------------------
                                OUTER      INNER                    STEP   MAXIMUM CHANGE MODEL-(CELLID) OR
 OUTER ITERATION STEP       ITERATION  ITERATION  MAXIMUM CHANGE SUCCESS             MODEL-PACKAGE-(NUMBER)
 ----------------------------------------------------------------------------------------------------------
 Model                              1          6     -0.23862794                             1_GWF-(1,22,7)
 Model                              2          2 -5.93678503E-02       *                     1_GWF-(4,2,11)
 Package                            2                  661.25588                   1_GWF-SFR_0-(180)-inflow
 Model                              3          2  1.11558649E-02       *                    1_GWF-(4,21,21)
 Package                            3                  141.54951                   1_GWF-SFR_0-(180)-inflow
 Model                              4          1  2.12951272E-03       *                    1_GWF-(4,21,21)
 Package                            4                  28.839632                   1_GWF-SFR_0-(180)-inflow
 Model                              5          1 -4.96868615E-04       *                    1_GWF-(13,20,9)
 Package                            5                  4.1851116                   1_GWF-SFR_0-(180)-inflow
 Model                              6          1 -2.74616156E-04       *                    1_GWF-(13,20,9)
 Package                            6                  1.1852392                   1_GWF-SFR_0-(180)-inflow
 Model                              7          1 -1.76852156E-04       *                    1_GWF-(12,20,9)
 Package                            7                 0.50408050                   1_GWF-SFR_0-(180)-inflow
 Model                              8          1 -1.32015321E-04       *                    1_GWF-(1,19,10)
 Package                            8                 0.36216582                   1_GWF-SFR_0-(180)-inflow
 Model                              9          1 -1.24516523E-04       *                    1_GWF-(1,19,10)
 Package                            9                 0.28351011                   1_GWF-SFR_0-(180)-inflow
 Model                             10          1 -1.21094544E-04       *                   1_GWF-(11,19,10)
 Package                           10                 0.25813606                   1_GWF-SFR_0-(180)-inflow
 Model                             11          1 -8.29553378E-05       *                    1_GWF-(1,18,10)
 Package                           11                 0.24199197                   1_GWF-SFR_0-(180)-inflow
 Model                             12          1 -1.66618816E-05       *                    1_GWF-(11,18,9)
 Package                           12                 0.15917306                   1_GWF-SFR_0-(180)-inflow
 Model                             13          1 -2.45105235E-05       *                    1_GWF-(11,18,9)
 Package                           13             3.20654497E-02       *           1_GWF-SFR_0-(180)-inflow
 ----------------------------------------------------------------------------------------------------------


 13 CALLS TO NUMERICAL SOLUTION IN TIME STEP 3 STRESS PERIOD 2
 20 TOTAL ITERATIONS

 INNER ITERATION SUMMARY
 --------------------------------------------------------------------------------------------------------------------------------------
      TOTAL      OUTER      INNER                                                            MAXIMUM                                   
  ITERATION  ITERATION  ITERATION  MAXIMUM CHANGE      MAXIMUM CHANGE MODEL-(CELLID)        RESIDUAL    MAXIMUM RESIDUAL MODEL-(CELLID)
 --------------------------------------------------------------------------------------------------------------------------------------
          1          1          1     -0.21595607                    1_GWF-(4,28,18)       196.53153                    1_GWF-(11,21,6)
          2          1          2 -9.78761933E-02                    1_GWF-(11,22,7)       53.713473                     1_GWF-(6,5,32)
          3          1          3 -2.07450073E-02                   1_GWF-(11,22,10)       36.869911                    1_GWF-(11,18,9)
          4          1          4 -2.20130185E-02                   1_GWF-(11,23,10)       20.418991                    1_GWF-(11,18,9)
          5          1          5 -1.24875434E-02                   1_GWF-(11,22,10)       11.818363                    1_GWF-(11,18,9)
          6          1          6 -9.00706739E-03                   1_GWF-(11,21,10)       4.7838850                    1_GWF-(11,18,9)
          7          2          1 -5.86643243E-02                     1_GWF-(4,2,11)       13.621186                      1_GWF-(9,3,2)
          8          2          2 -2.98502903E-03                     1_GWF-(12,3,2)       3.1184364                    1_GWF-(11,18,9)
          9          3          1  1.11635766E-02                    1_GWF-(4,21,21)       2.3428272                   1_GWF-(11,18,10)
         10          3          2 -1.41025946E-03                   1_GWF-(11,18,10)       1.2527316                    1_GWF-(11,18,9)
         11          4          1  2.12951272E-03                    1_GWF-(4,21,21)       1.1432058                    1_GWF-(11,18,9)
         12          5          1 -4.96868615E-04                    1_GWF-(13,20,9)      0.92538755                    1_GWF-(11,18,9)
         13          6          1 -2.74616156E-04                    1_GWF-(13,20,9)      0.74300336                    1_GWF-(11,18,9)
         14          7          1 -1.76852156E-04                    1_GWF-(12,20,9)      0.58463804                    1_GWF-(11,18,9)
         15          8          1 -1.32015321E-04                    1_GWF-(1,19,10)      0.44842679                    1_GWF-(11,18,9)
         16          9          1 -1.24516523E-04                    1_GWF-(1,19,10)      0.32013022                    1_GWF-(11,18,9)
         17         10          1 -1.21094544E-04                   1_GWF-(11,19,10)      0.15345217                    1_GWF-(11,18,9)
         18         11          1 -8.29553378E-05                    1_GWF-(1,18,10)     -0.12172313                      1_GWF-(7,3,8)
         19         12          1 -1.66618816E-05                    1_GWF-(11,18,9)  4.28417909E-02                    1_GWF-(11,18,9)
         20         13          1 -2.45105235E-05                    1_GWF-(11,18,9) -3.51612566E-02                      1_GWF-(7,3,8)
 --------------------------------------------------------------------------------------------------------------------------------------



 OUTER ITERATION SUMMARY
 ----------------------------------------------------------------------------------------------------------
                                OUTER      INNER                    STEP   MAXIMUM CHANGE MODEL-(CELLID) OR
 OUTER ITERATION STEP       ITERATION  ITERATION  MAXIMUM CHANGE SUCCESS             MODEL-PACKAGE-(NUMBER)
 ----------------------------------------------------------------------------------------------------------
 Model                              1          7     -0.26853442                             1_GWF-(1,23,7)
 Model                              2          2 -3.60906693E-02       *                     1_GWF-(4,4,14)
 Package                            2                  1011.7883                    1_GWF-SFR_0-(83)-inflow
 Model                              3          1  5.57144084E-03       *                     1_GWF-(4,3,24)
 Package                            3                  207.60601                   1_GWF-SFR_0-(180)-inflow
 Model                              4          1  1.19752971E-03       *                     1_GWF-(4,3,24)
 Package                            4                  36.460435                   1_GWF-SFR_0-(180)-inflow
 Model                              5          1 -5.07828089E-04       *                    1_GWF-(11,27,6)
 Package                            5                  7.9410261                   1_GWF-SFR_0-(180)-inflow
 Model                              6          1 -4.26823661E-04       *                    1_GWF-(11,25,5)
 Package                            6                  3.6180235                   1_GWF-SFR_0-(180)-inflow
 Model                              7          1 -4.06455290E-04       *                   1_GWF-(11,24,10)
 Package                            7                  2.3568564                   1_GWF-SFR_0-(180)-inflow
 Model                              8          1 -2.07341318E-04       *                    1_GWF-(11,18,9)
 Package                            8                  1.7327783                   1_GWF-SFR_0-(180)-inflow
 Model                              9          1 -1.30369377E-04       *                   1_GWF-(11,22,10)
 Package                            9                 0.74106141                   1_GWF-SFR_0-(180)-inflow
 Model                             10          1 -7.57838529E-05       *                   1_GWF-(11,21,10)
 Package                           10                 0.39353249                   1_GWF-SFR_0-(180)-inflow
 Model                             11          1 -2.86292065E-05       *                   1_GWF-(11,22,10)
 Package                           11                 0.19168520                   1_GWF-SFR_0-(180)-inflow
 Model                             12          1 -2.79783719E-05       *                   1_GWF-(11,21,10)
 Package                           12             7.09549522E-02       *           1_GWF-SFR_0-(180)-inflow
 ----------------------------------------------------------------------------------------------------------


 12 CALLS TO NUMERICAL SOLUTION IN TIME STEP 4 STRESS PERIOD 2
 19 TOTAL ITERATIONS

 INNER ITERATION SUMMARY
 --------------------------------------------------------------------------------------------------------------------------------------
      TOTAL      OUTER      INNER                                                            MAXIMUM                                   
  ITERATION  ITERATION  ITERATION  MAXIMUM CHANGE      MAXIMUM CHANGE MODEL-(CELLID)        RESIDUAL    MAXIMUM RESIDUAL MODEL-(CELLID)
 --------------------------------------------------------------------------------------------------------------------------------------
          1          1          1     -0.20583911                    1_GWF-(13,3,19)       174.15618                    1_GWF-(11,21,6)
          2          1          2     -0.12813966                    1_GWF-(11,23,7)       61.907550                    1_GWF-(11,19,9)
          3          1          3 -2.27526071E-02                    1_GWF-(1,22,10)       31.813035                    1_GWF-(11,18,9)
          4          1          4 -2.44111181E-02                   1_GWF-(11,23,10)       18.754582                   1_GWF-(11,18,10)
          5          1          5 -1.33305983E-02                   1_GWF-(11,22,10)       11.109281                   1_GWF-(11,18,10)
          6          1          6 -1.01176187E-02                   1_GWF-(11,22,10)       4.7146896                   1_GWF-(11,18,10)
          7          1          7 -3.32921024E-03                   1_GWF-(11,20,10)       2.4928024                    1_GWF-(11,18,9)
          8          2          1 -3.55912838E-02                     1_GWF-(4,4,14)       9.7041402                    1_GWF-(11,26,6)
          9          2          2 -6.34150329E-03                    1_GWF-(11,28,7)       2.7954598                    1_GWF-(11,26,7)
         10          3          1  5.57144084E-03                     1_GWF-(4,3,24)      -2.1789277                     1_GWF-(6,4,27)
         11          4          1  1.19752971E-03                     1_GWF-(4,3,24)      -1.5252630                     1_GWF-(7,4,26)
         12          5          1 -5.07828089E-04                    1_GWF-(11,27,6)      -1.4291153                    1_GWF-(8,13,20)
         13          6          1 -4.26823661E-04                    1_GWF-(11,25,5)      -1.2038104                    1_GWF-(8,13,20)
         14          7          1 -4.06455290E-04                   1_GWF-(11,24,10)     -0.53715576                    1_GWF-(7,13,20)
         15          8          1 -2.07341318E-04                    1_GWF-(11,18,9)     -0.64459100                    1_GWF-(7,13,20)
         16          9          1 -1.30369377E-04                   1_GWF-(11,22,10)     -0.24320993                    1_GWF-(4,20,27)
         17         10          1 -7.57838529E-05                   1_GWF-(11,21,10)      0.13058959                    1_GWF-(11,20,8)
         18         11          1 -2.86292065E-05                   1_GWF-(11,22,10)  9.35871090E-02                    1_GWF-(11,18,9)
         19         12          1 -2.79783719E-05                   1_GWF-(11,21,10)  7.24638330E-02                    1_GWF-(11,20,8)
 --------------------------------------------------------------------------------------------------------------------------------------



 OUTER ITERATION SUMMARY
 ----------------------------------------------------------------------------------------------------------
                                OUTER      INNER                    STEP   MAXIMUM CHANGE MODEL-(CELLID) OR
 OUTER ITERATION STEP       ITERATION  ITERATION  MAXIMUM CHANGE SUCCESS             MODEL-PACKAGE-(NUMBER)
 ----------------------------------------------------------------------------------------------------------
 Model                              1          6     -0.27435697                             1_GWF-(1,24,7)
 Model                              2          2 -6.16092704E-02       *                     1_GWF-(4,4,14)
 Package                            2                  1532.0862                    1_GWF-SFR_0-(83)-inflow
 Model                              3          1 -6.23347390E-03       *                     1_GWF-(4,4,15)
 Package                            3                  284.78214                   1_GWF-SFR_0-(180)-inflow
 Model                              4          1 -8.52093375E-04       *                     1_GWF-(4,4,15)
 Package                            4                  53.265027                   1_GWF-SFR_0-(180)-inflow
 Model                              5          1 -6.83096369E-04       *                   1_GWF-(13,23,10)
 Package                            5                  15.785794                   1_GWF-SFR_0-(180)-inflow
 Model                              6          1 -7.17229137E-04       *                   1_GWF-(13,23,10)
 Package                            6                  7.9575728                   1_GWF-SFR_0-(180)-inflow
 Model                              7          1 -5.34020566E-04       *                   1_GWF-(11,21,10)
 Package                            7                  4.2648626                   1_GWF-SFR_0-(180)-inflow
 Model                              8          1 -3.90580890E-04       *                    1_GWF-(1,20,10)
 Package                            8                  2.8075302                   1_GWF-SFR_0-(180)-inflow
 Model                              9          1 -1.09368754E-04       *                    1_GWF-(1,20,10)
 Package                            9                  1.6233329                   1_GWF-SFR_0-(180)-inflow
 Model                             10          1 -3.37283294E-05       *                    1_GWF-(1,20,10)
 Package                           10                 0.35466962                   1_GWF-SFR_0-(180)-inflow
 Model                             11          1 -3.40752748E-05       *                    1_GWF-(1,20,10)
 Package                           11                 0.11221575                   1_GWF-SFR_0-(180)-inflow
 Model                             12          1 -3.08040324E-05       *                    1_GWF-(1,20,10)
 Package                           12                 0.10449213                   1_GWF-SFR_0-(180)-inflow
 Model                             13          1 -2.50458409E-05       *                    1_GWF-(1,20,10)
 Package                           13             9.70233489E-02       *           1_GWF-SFR_0-(180)-inflow
 ----------------------------------------------------------------------------------------------------------


 13 CALLS TO NUMERICAL SOLUTION IN TIME STEP 5 STRESS PERIOD 2
 19 TOTAL ITERATIONS

 INNER ITERATION SUMMARY
 --------------------------------------------------------------------------------------------------------------------------------------
      TOTAL      OUTER      INNER                                                            MAXIMUM                                   
  ITERATION  ITERATION  ITERATION  MAXIMUM CHANGE      MAXIMUM CHANGE MODEL-(CELLID)        RESIDUAL    MAXIMUM RESIDUAL MODEL-(CELLID)
 --------------------------------------------------------------------------------------------------------------------------------------
          1          1          1     -0.25186646                     1_GWF-(4,1,20)       142.50374                    1_GWF-(11,21,6)
          2          1          2     -0.14443798                    1_GWF-(11,24,7)       66.695081                     1_GWF-(6,4,28)
          3          1          3 -2.79842674E-02                    1_GWF-(11,25,6)       28.283061                    1_GWF-(11,18,9)
          4          1          4 -2.17256654E-02                   1_GWF-(11,23,10)       16.997689                    1_GWF-(11,18,9)
          5          1          5 -1.38099091E-02                   1_GWF-(11,22,10)       9.8803060                   1_GWF-(11,18,10)
          6          1          6 -9.09116783E-03                   1_GWF-(11,22,10)       5.0852208                    1_GWF-(11,19,9)
          7          2          1 -5.97327335E-02                     1_GWF-(4,4,14)       6.5087493                    1_GWF-(5,27,16)
          8          2          2 -2.65322350E-03                   1_GWF-(10,28,17)       2.4721375                   1_GWF-(11,17,10)
          9          3          1 -6.23347390E-03                     1_GWF-(4,4,15)       3.0926867                    1_GWF-(11,18,9)
         10          4          1 -8.52093375E-04                     1_GWF-(4,4,15)       2.2510929                    1_GWF-(11,18,9)
         11          5          1 -6.83096369E-04                   1_GWF-(13,23,10)       1.5848731                    1_GWF-(11,18,9)
         12          6          1 -7.17229137E-04                   1_GWF-(13,23,10)      0.85532989                    1_GWF-(11,18,9)
         13          7          1 -5.34020566E-04                   1_GWF-(11,21,10)      0.46318410                    1_GWF-(11,20,8)
         14          8          1 -3.90580890E-04                    1_GWF-(1,20,10)      0.28146739                     1_GWF-(1,18,8)
         15          9          1 -1.09368754E-04                    1_GWF-(1,20,10)      0.15418857                    1_GWF-(11,18,8)
         16         10          1 -3.37283294E-05                    1_GWF-(1,20,10)      0.11194999                    1_GWF-(11,19,8)
         17         11          1 -3.40752748E-05                    1_GWF-(1,20,10)  8.92567961E-02                    1_GWF-(11,19,8)
         18         12          1 -3.08040324E-05                    1_GWF-(1,20,10)  6.82824844E-02                    1_GWF-(11,19,8)
         19         13          1 -2.50458409E-05                    1_GWF-(1,20,10) -6.01211074E-02                    1_GWF-(10,2,32)
 --------------------------------------------------------------------------------------------------------------------------------------



 OUTER ITERATION SUMMARY
 ----------------------------------------------------------------------------------------------------------
                                OUTER      INNER                    STEP   MAXIMUM CHANGE MODEL-(CELLID) OR
 OUTER ITERATION STEP       ITERATION  ITERATION  MAXIMUM CHANGE SUCCESS             MODEL-PACKAGE-(NUMBER)
 ----------------------------------------------------------------------------------------------------------
 Model                              1          6     -0.28827101                             1_GWF-(4,1,20)
 Model                              2          2 -6.84135421E-02       *                     1_GWF-(4,3,15)
 Package                            2                  2126.4605                    1_GWF-SFR_0-(83)-inflow
 Model                              3          1 -7.51580121E-03       *                     1_GWF-(4,3,15)
 Package                            3                  349.63986                   1_GWF-SFR_0-(180)-inflow
 Model                              4          1 -1.35299848E-03       *                     1_GWF-(4,3,15)
 Package                            4                  75.779513                   1_GWF-SFR_0-(180)-inflow
 Model                              5          1 -9.50211503E-04       *                    1_GWF-(13,27,6)
 Package                            5                  22.932706                   1_GWF-SFR_0-(180)-inflow
 Model                              6          1 -8.15155990E-04       *                    1_GWF-(13,18,9)
 Package                            6                  15.222233                   1_GWF-SFR_0-(180)-inflow
 Model                              7          1 -7.45087695E-04       *                    1_GWF-(11,18,9)
 Package                            7                  4.9871191                   1_GWF-SFR_0-(180)-inflow
 Model                              8          1 -3.07269018E-04       *                   1_GWF-(11,21,10)
 Package                            8                  5.0259617                   1_GWF-SFR_0-(180)-inflow
 Model                              9          1 -2.62135546E-04       *                    1_GWF-(11,22,9)
 Package                            9                  1.5002103                   1_GWF-SFR_0-(180)-inflow
 Model                             10          1 -1.43543024E-04       *                   1_GWF-(11,21,10)
 Package                           10                  1.1179620                   1_GWF-SFR_0-(180)-inflow
 Model                             11          1 -8.85837493E-05       *                    1_GWF-(11,22,9)
 Package                           11                 0.51941202                   1_GWF-SFR_0-(180)-inflow
 Model                             12          1 -3.74801982E-05       *                    1_GWF-(11,21,8)
 Package                           12                 0.30980544                   1_GWF-SFR_0-(180)-inflow
 Model                             13          1 -4.13064244E-05       *                    1_GWF-(11,21,9)
 Package                           13                 0.13309991                   1_GWF-SFR_0-(180)-inflow
 Model                             14          1 -3.41138662E-05       *                    1_GWF-(11,22,9)
 Package                           14                 0.14469041                   1_GWF-SFR_0-(180)-inflow
 Model                             15          1 -2.44508982E-05       *                    1_GWF-(11,22,9)
 Package                           15                 0.12173345                   1_GWF-SFR_0-(180)-inflow
 Model                             16          1 -2.21227638E-05       *                    1_GWF-(11,21,9)
 Package                           16             8.59026973E-02       *           1_GWF-SFR_0-(180)-inflow
 ----------------------------------------------------------------------------------------------------------


 16 CALLS TO NUMERICAL SOLUTION IN TIME STEP 6 STRESS PERIOD 2
 22 TOTAL ITERATIONS

 INNER ITERATION SUMMARY
 --------------------------------------------------------------------------------------------------------------------------------------
      TOTAL      OUTER      INNER                                                            MAXIMUM                                   
  ITERATION  ITERATION  ITERATION  MAXIMUM CHANGE      MAXIMUM CHANGE MODEL-(CELLID)        RESIDUAL    MAXIMUM RESIDUAL MODEL-(CELLID)
 --------------------------------------------------------------------------------------------------------------------------------------
          1          1          1     -0.27218591                     1_GWF-(4,1,20)       147.37215                     1_GWF-(7,4,26)
          2          1          2     -0.13160916                    1_GWF-(11,25,7)       84.657784                     1_GWF-(6,4,28)
          3          1          3 -3.10136913E-02                    1_GWF-(11,25,6)      -29.517124                     1_GWF-(7,4,26)
          4          1          4 -1.90606181E-02                   1_GWF-(11,22,10)      -25.272335                     1_GWF-(7,4,26)
          5          1          5 -1.06292380E-02                   1_GWF-(11,22,10)      -15.065810                     1_GWF-(6,4,27)
          6          1          6 -7.77217226E-03                   1_GWF-(11,22,10)      -7.7056619                     1_GWF-(7,4,26)
          7          2          1 -6.26294982E-02                     1_GWF-(4,3,15)       13.518057                    1_GWF-(11,27,7)
          8          2          2 -6.15627599E-03                    1_GWF-(13,2,14)      -2.9952220                     1_GWF-(7,4,26)
          9          3          1 -7.51580121E-03                     1_GWF-(4,3,15)       2.9984893                   1_GWF-(11,18,10)
         10          4          1 -1.35299848E-03                     1_GWF-(4,3,15)       1.9737406                    1_GWF-(11,20,8)
         11          5          1 -9.50211503E-04                    1_GWF-(13,27,6)       1.6767117                    1_GWF-(11,18,9)
         12          6          1 -8.15155990E-04                    1_GWF-(13,18,9)       1.3958938                    1_GWF-(11,18,9)
         13          7          1 -7.45087695E-04                    1_GWF-(11,18,9)      0.72537369                    1_GWF-(11,19,8)
         14          8          1 -3.07269018E-04                   1_GWF-(11,21,10)     -0.93942714                     1_GWF-(6,5,31)
         15          9          1 -2.62135546E-04                    1_GWF-(11,22,9)     -0.43506583                    1_GWF-(6,10,29)
         16         10          1 -1.43543024E-04                   1_GWF-(11,21,10)      0.30598368                    1_GWF-(11,18,9)
         17         11          1 -8.85837493E-05                    1_GWF-(11,22,9)      0.16707668                    1_GWF-(11,20,7)
         18         12          1 -3.74801982E-05                    1_GWF-(11,21,8)      0.13354690                    1_GWF-(11,19,8)
         19         13          1 -4.13064244E-05                    1_GWF-(11,21,9)      0.11003943                    1_GWF-(11,19,8)
         20         14          1 -3.41138662E-05                    1_GWF-(11,22,9)  9.63548642E-02                    1_GWF-(5,13,12)
         21         15          1 -2.44508982E-05                    1_GWF-(11,22,9)  7.08845044E-02                    1_GWF-(11,19,8)
         22         16          1 -2.21227638E-05                    1_GWF-(11,21,9)  5.70859177E-02                    1_GWF-(11,19,8)
 --------------------------------------------------------------------------------------------------------------------------------------



 OUTER ITERATION SUMMARY
 ----------------------------------------------------------------------------------------------------------
                                OUTER      INNER                    STEP   MAXIMUM CHANGE MODEL-(CELLID) OR
 OUTER ITERATION STEP       ITERATION  ITERATION  MAXIMUM CHANGE SUCCESS             MODEL-PACKAGE-(NUMBER)
 ----------------------------------------------------------------------------------------------------------
 Model                              1          6     -0.29584461                             1_GWF-(4,1,21)
 Model                              2          2 -5.99233188E-02       *                     1_GWF-(4,3,15)
 Package                            2                  2698.8000                    1_GWF-SFR_0-(83)-inflow
 Model                              3          1 -4.67136656E-03       *                     1_GWF-(4,3,15)
 Package                            3                  452.88678                   1_GWF-SFR_0-(180)-inflow
 Model                              4          1  1.42165443E-03       *                     1_GWF-(4,3,26)
 Package                            4                  77.697332                   1_GWF-SFR_0-(180)-inflow
 Model                              5          1  1.45123329E-03       *                    1_GWF-(11,3,27)
 Package                            5                  24.183383                   1_GWF-SFR_0-(180)-inflow
 Model                              6          1  6.07813428E-04       *                    1_GWF-(13,2,23)
 Package                            6                  10.588762                   1_GWF-SFR_0-(180)-inflow
 Model                              7          1  2.31291123E-04       *                    1_GWF-(13,2,23)
 Package                            7                  4.5346607                   1_GWF-SFR_0-(180)-inflow
 Model                              8          1 -2.25513586E-04       *                    1_GWF-(11,20,9)
 Package                            8                  1.7018060                   1_GWF-SFR_0-(180)-inflow
 Model                              9          1 -2.01207691E-04       *                    1_GWF-(11,20,9)
 Package                            9                  1.7838362                   1_GWF-SFR_0-(180)-inflow
 Model                             10          1 -1.65509224E-04       *                    1_GWF-(11,20,8)
 Package                           10                  1.5060145                   1_GWF-SFR_0-(180)-inflow
 Model                             11          1 -1.80654593E-04       *                    1_GWF-(11,20,8)
 Package                           11                  1.1175276                   1_GWF-SFR_0-(180)-inflow
 Model                             12          1 -1.68570036E-04       *                    1_GWF-(11,20,8)
 Package                           12                  1.1409831                   1_GWF-SFR_0-(180)-inflow
 Model                             13          1 -5.41978767E-05       *                    1_GWF-(11,20,8)
 Package                           13                 0.94359176                   1_GWF-SFR_0-(180)-inflow
 Model                             14          1 -8.66793735E-05       *                    1_GWF-(11,20,8)
 Package                           14                 0.29294841                   1_GWF-SFR_0-(180)-inflow
 Model                             15          1 -2.89262667E-05       *                    1_GWF-(11,20,8)
 Package                           15                 0.43482118                   1_GWF-SFR_0-(180)-inflow
 Model                             16          1 -3.19546017E-05       *                    1_GWF-(11,20,8)
 Package                           16                 0.14618248                   1_GWF-SFR_0-(180)-inflow
 Model                             17          1 -3.64962695E-05       *                    1_GWF-(11,20,8)
 Package                           17                 0.15457209                   1_GWF-SFR_0-(180)-inflow
 Model                             18          1 -1.72271166E-05       *                    1_GWF-(11,21,8)
 Package                           18                 0.17515476                   1_GWF-SFR_0-(180)-inflow
 Model                             19          1 -1.10041016E-05       *                    1_GWF-(11,21,8)
 Package                           19             7.75790049E-02       *           1_GWF-SFR_0-(180)-inflow
 ----------------------------------------------------------------------------------------------------------


 19 CALLS TO NUMERICAL SOLUTION IN TIME STEP 7 STRESS PERIOD 2
 25 TOTAL ITERATIONS

 INNER ITERATION SUMMARY
 --------------------------------------------------------------------------------------------------------------------------------------
      TOTAL      OUTER      INNER                                                            MAXIMUM                                   
  ITERATION  ITERATION  ITERATION  MAXIMUM CHANGE      MAXIMUM CHANGE MODEL-(CELLID)        RESIDUAL    MAXIMUM RESIDUAL MODEL-(CELLID)
 --------------------------------------------------------------------------------------------------------------------------------------
          1          1          1     -0.25389275                     1_GWF-(4,1,20)       134.89261                     1_GWF-(7,4,26)
          2          1          2     -0.10554859                    1_GWF-(11,4,26)       90.002599                     1_GWF-(6,4,28)
          3          1          3  3.08366201E-02                    1_GWF-(13,4,18)      -35.118141                     1_GWF-(7,4,26)
          4          1          4  2.52118146E-02                    1_GWF-(13,3,18)      -37.411286                     1_GWF-(7,4,26)
          5          1          5  1.18641925E-02                    1_GWF-(11,4,26)      -19.591772                     1_GWF-(6,4,27)
          6          1          6  5.17117186E-03                    1_GWF-(11,4,27)      -12.514053                     1_GWF-(7,4,26)
          7          2          1 -5.42481952E-02                     1_GWF-(4,3,15)      -11.919725                     1_GWF-(6,4,27)
          8          2          2 -5.71799389E-03                    1_GWF-(13,3,15)      -5.3934444                     1_GWF-(7,4,26)
          9          3          1 -4.67136656E-03                     1_GWF-(4,3,15)      -6.0037982                     1_GWF-(7,4,26)
         10          4          1  1.42165443E-03                     1_GWF-(4,3,26)      -4.3553592                     1_GWF-(7,4,26)
         11          5          1  1.45123329E-03                    1_GWF-(11,3,27)      -2.1152358                     1_GWF-(7,4,26)
         12          6          1  6.07813428E-04                    1_GWF-(13,2,23)      -1.3906638                     1_GWF-(7,4,26)
         13          7          1  2.31291123E-04                    1_GWF-(13,2,23)      -1.0236611                     1_GWF-(7,4,26)
         14          8          1 -2.25513586E-04                    1_GWF-(11,20,9)     -0.70074163                     1_GWF-(7,4,26)
         15          9          1 -2.01207691E-04                    1_GWF-(11,20,9)     -0.56998940                    1_GWF-(6,10,11)
         16         10          1 -1.65509224E-04                    1_GWF-(11,20,8)     -0.52775552                    1_GWF-(6,10,11)
         17         11          1 -1.80654593E-04                    1_GWF-(11,20,8)     -0.47097246                    1_GWF-(6,10,11)
         18         12          1 -1.68570036E-04                    1_GWF-(11,20,8)      0.51890763                     1_GWF-(4,3,15)
         19         13          1 -5.41978767E-05                    1_GWF-(11,20,8)     -0.20552989                     1_GWF-(4,3,15)
         20         14          1 -8.66793735E-05                    1_GWF-(11,20,8)      0.24600082                     1_GWF-(4,3,15)
         21         15          1 -2.89262667E-05                    1_GWF-(11,20,8)  7.00112008E-02                    1_GWF-(11,20,8)
         22         16          1 -3.19546017E-05                    1_GWF-(11,20,8)      0.11778389                     1_GWF-(4,3,15)
         23         17          1 -3.64962695E-05                    1_GWF-(11,20,8)  4.31999533E-02                     1_GWF-(5,3,15)
         24         18          1 -1.72271166E-05                    1_GWF-(11,21,8) -4.87263655E-02                     1_GWF-(5,3,15)
         25         19          1 -1.10041016E-05                    1_GWF-(11,21,8)  2.49817340E-02                     1_GWF-(5,3,15)
 --------------------------------------------------------------------------------------------------------------------------------------



 OUTER ITERATION SUMMARY
 ----------------------------------------------------------------------------------------------------------
                                OUTER      INNER                    STEP   MAXIMUM CHANGE MODEL-(CELLID) OR
 OUTER ITERATION STEP       ITERATION  ITERATION  MAXIMUM CHANGE SUCCESS             MODEL-PACKAGE-(NUMBER)
 ----------------------------------------------------------------------------------------------------------
 Model                              1          6     -0.25509474                             1_GWF-(4,1,20)
 Model                              2          2 -3.73558044E-02       *                     1_GWF-(4,2,16)
 Package                            2                  3031.9350                    1_GWF-SFR_0-(83)-inflow
 Model                              3          1 -1.12686165E-03       *                     1_GWF-(4,6,11)
 Package                            3                  511.66607                   1_GWF-SFR_0-(180)-inflow
 Model                              4          1  8.25062094E-04       *                    1_GWF-(11,3,27)
 Package                            4                  88.663660                   1_GWF-SFR_0-(180)-inflow
 Model                              5          1  4.68415976E-04       *                    1_GWF-(11,3,27)
 Package                            5                  26.879884                   1_GWF-SFR_0-(180)-inflow
 Model                              6          1  3.85273127E-04       *                    1_GWF-(13,3,24)
 Package                            6                  5.3993399                   1_GWF-SFR_0-(180)-inflow
 Model                              7          1  3.64373402E-04       *                    1_GWF-(13,3,24)
 Package                            7                  4.2217822                   1_GWF-SFR_0-(180)-inflow
 Model                              8          1  3.88019686E-04       *                    1_GWF-(13,3,24)
 Package                            8                  3.5798865                   1_GWF-SFR_0-(180)-inflow
 Model                              9          1 -1.92893450E-04       *                    1_GWF-(11,20,9)
 Package                            9                  4.0402538                   1_GWF-SFR_0-(180)-inflow
 Model                             10          1 -1.37595876E-04       *                    1_GWF-(11,20,8)
 Package                           10                  2.2745438                   1_GWF-SFR_0-(180)-inflow
 Model                             11          1 -1.46551374E-04       *                    1_GWF-(11,20,8)
 Package                           11                  1.3804050                   1_GWF-SFR_0-(180)-inflow
 Model                             12          1 -2.06837184E-04       *                    1_GWF-(11,20,8)
 Package                           12                  1.3499221                   1_GWF-SFR_0-(180)-inflow
 Model                             13          1 -2.00334192E-04       *                    1_GWF-(11,20,8)
 Package                           13                  1.7167381                   1_GWF-SFR_0-(180)-inflow
 Model                             14          1 -2.42284842E-05       *                    1_GWF-(11,21,8)
 Package                           14                  1.3643379                   1_GWF-SFR_0-(180)-inflow
 Model                             15          1 -3.84916453E-05       *                    1_GWF-(11,21,8)
 Package                           15                 0.17711986                   1_GWF-SFR_0-(180)-inflow
 Model                             16          1 -2.35602167E-05       *                    1_GWF-(11,21,8)
 Package                           16                 0.23109576                   1_GWF-SFR_0-(180)-inflow
 Model                             17          1 -2.52193466E-05       *                    1_GWF-(11,21,8)
[...]
          6          1          6 -4.24428591E-03                    1_GWF-(11,5,33)      -1.9584088                     1_GWF-(7,4,26)
          7          2          1  3.03275600E-02                    1_GWF-(4,21,23)       24.604531                    1_GWF-(6,11,30)
          8          2          2 -2.72789671E-03                   1_GWF-(13,17,33)       6.0123150                    1_GWF-(6,16,33)
          9          3          1  9.12026381E-03                    1_GWF-(4,21,23)       5.1570613                    1_GWF-(6,17,33)
         10          4          1  1.84403740E-03                    1_GWF-(4,21,23)       2.9435449                    1_GWF-(6,17,33)
         11          5          1 -7.37469338E-04                   1_GWF-(11,17,33)       1.7517704                    1_GWF-(6,16,33)
         12          6          1 -5.11057004E-04                   1_GWF-(11,17,33)      0.98696014                    1_GWF-(6,16,33)
         13          7          1 -2.60565363E-04                   1_GWF-(11,17,33)      0.59343207                    1_GWF-(6,16,33)
         14          8          1 -1.63569740E-04                   1_GWF-(11,17,33)      0.34677999                     1_GWF-(6,4,32)
         15          9          1 -1.02166216E-04                   1_GWF-(11,17,33)      0.21180425                     1_GWF-(6,4,32)
 --------------------------------------------------------------------------------------------------------------------------------------



 OUTER ITERATION SUMMARY
 ----------------------------------------------------------------------------------------------------------
                                OUTER      INNER                    STEP   MAXIMUM CHANGE MODEL-(CELLID) OR
 OUTER ITERATION STEP       ITERATION  ITERATION  MAXIMUM CHANGE SUCCESS             MODEL-PACKAGE-(NUMBER)
 ----------------------------------------------------------------------------------------------------------
 Model                              1          5     -0.18248132                            1_GWF-(4,25,27)
 Model                              2          2  3.25926288E-02       *                    1_GWF-(4,18,19)
 Package                            2                  278.65329                   1_GWF-SFR_0-(180)-inflow
 Model                              3          1  9.50758740E-03       *                    1_GWF-(4,18,19)
 Package                            3                  47.086552                   1_GWF-SFR_0-(207)-inflow
 Model                              4          1  2.06818130E-03       *                    1_GWF-(4,18,19)
 Package                            4                  6.0764939                   1_GWF-SFR_0-(207)-inflow
 Model                              5          1 -5.66204720E-04       *                    1_GWF-(1,23,11)
 Package                            5                  1.1444414                   1_GWF-SFR_0-(180)-inflow
 Model                              6          1 -4.86708161E-04       *                    1_GWF-(1,23,11)
 Package                            6                 0.63803633                   1_GWF-SFR_0-(180)-inflow
 Model                              7          1 -2.27835497E-04       *                    1_GWF-(1,23,11)
 Package                            7                 0.46176314                   1_GWF-SFR_0-(180)-inflow
 Model                              8          1 -1.08032429E-04       *                    1_GWF-(1,23,11)
 Package                            8                 0.21043769                   1_GWF-SFR_0-(180)-inflow
 Model                              9          1 -8.23601059E-05       *                    1_GWF-(1,23,11)
 Package                            9                 0.10314849                   1_GWF-SFR_0-(180)-inflow
 Model                             10          1 -4.31002327E-05       *                    1_GWF-(1,23,11)
 Package                           10             8.17351641E-02       *           1_GWF-SFR_0-(180)-inflow
 ----------------------------------------------------------------------------------------------------------


 10 CALLS TO NUMERICAL SOLUTION IN TIME STEP 3 STRESS PERIOD 19
 15 TOTAL ITERATIONS

 INNER ITERATION SUMMARY
 --------------------------------------------------------------------------------------------------------------------------------------
      TOTAL      OUTER      INNER                                                            MAXIMUM                                   
  ITERATION  ITERATION  ITERATION  MAXIMUM CHANGE      MAXIMUM CHANGE MODEL-(CELLID)        RESIDUAL    MAXIMUM RESIDUAL MODEL-(CELLID)
 --------------------------------------------------------------------------------------------------------------------------------------
          1          1          1     -0.18458310                    1_GWF-(4,25,27)       233.65203                     1_GWF-(6,2,32)
          2          1          2 -4.51174522E-02                    1_GWF-(12,17,7)       105.77891                     1_GWF-(6,4,32)
          3          1          3 -1.42039735E-02                    1_GWF-(10,5,33)       37.021437                     1_GWF-(6,4,32)
          4          1          4 -1.41799759E-02                    1_GWF-(1,23,11)       18.088663                     1_GWF-(6,4,32)
          5          1          5 -7.56421345E-03                    1_GWF-(1,23,11)       6.1701448                     1_GWF-(6,6,32)
          6          2          1  3.19190601E-02                    1_GWF-(4,18,19)      -10.084995                     1_GWF-(6,5,28)
          7          2          2  1.64676992E-03                   1_GWF-(13,21,19)       3.1976545                     1_GWF-(6,8,32)
          8          3          1  9.50758740E-03                    1_GWF-(4,18,19)      -3.1610512                     1_GWF-(6,5,28)
          9          4          1  2.06818130E-03                    1_GWF-(4,18,19)       1.6833827                     1_GWF-(6,8,32)
         10          5          1 -5.66204720E-04                    1_GWF-(1,23,11)       1.1122573                     1_GWF-(6,8,32)
         11          6          1 -4.86708161E-04                    1_GWF-(1,23,11)      0.59607360                     1_GWF-(6,8,32)
         12          7          1 -2.27835497E-04                    1_GWF-(1,23,11)     -0.56174505                    1_GWF-(5,19,27)
         13          8          1 -1.08032429E-04                    1_GWF-(1,23,11)      0.22073518                     1_GWF-(6,8,32)
         14          9          1 -8.23601059E-05                    1_GWF-(1,23,11)     -0.18374533                    1_GWF-(5,19,27)
         15         10          1 -4.31002327E-05                    1_GWF-(1,23,11) -9.87500541E-02                    1_GWF-(5,23,22)
 --------------------------------------------------------------------------------------------------------------------------------------



 OUTER ITERATION SUMMARY
 ----------------------------------------------------------------------------------------------------------
                                OUTER      INNER                    STEP   MAXIMUM CHANGE MODEL-(CELLID) OR
 OUTER ITERATION STEP       ITERATION  ITERATION  MAXIMUM CHANGE SUCCESS             MODEL-PACKAGE-(NUMBER)
 ----------------------------------------------------------------------------------------------------------
 Model                              1          5     -0.18536345                            1_GWF-(4,20,21)
 Model                              2          2  2.79430953E-02       *                    1_GWF-(4,23,22)
 Package                            2                  414.19628                   1_GWF-SFR_0-(180)-inflow
 Model                              3          1  8.06268377E-03       *                    1_GWF-(4,23,22)
 Package                            3                  63.298247                   1_GWF-SFR_0-(180)-inflow
 Model                              4          1  1.89007559E-03       *                    1_GWF-(4,23,22)
 Package                            4                  8.3050426                   1_GWF-SFR_0-(180)-inflow
 Model                              5          1 -4.41004944E-04       *                   1_GWF-(11,18,10)
 Package                            5                  2.5973814                   1_GWF-SFR_0-(180)-inflow
 Model                              6          1 -2.92509384E-04       *                   1_GWF-(11,18,10)
 Package                            6                  1.3319292                   1_GWF-SFR_0-(180)-inflow
 Model                              7          1 -2.03574192E-04       *                   1_GWF-(11,18,10)
 Package                            7                 0.80215563                   1_GWF-SFR_0-(180)-inflow
 Model                              8          1 -1.35978175E-04       *                   1_GWF-(11,18,10)
 Package                            8                 0.54781883                   1_GWF-SFR_0-(180)-inflow
 Model                              9          1 -9.62741238E-05       *                     1_GWF-(1,11,3)
 Package                            9                 0.37289957                   1_GWF-SFR_0-(180)-inflow
 Model                             10          1 -9.41474296E-05       *                     1_GWF-(1,11,3)
 Package                           10                 0.25327492                   1_GWF-SFR_0-(180)-inflow
 Model                             11          1 -6.42220575E-05       *                     1_GWF-(1,11,3)
 Package                           11                 0.23564281                   1_GWF-SFR_0-(180)-inflow
 Model                             12          1 -3.50757113E-05       *                     1_GWF-(1,11,3)
 Package                           12                 0.14897060                   1_GWF-SFR_0-(180)-inflow
 Model                             13          1 -1.80022390E-05       *                     1_GWF-(1,11,3)
 Package                           13             7.65929839E-02       *           1_GWF-SFR_0-(180)-inflow
 ----------------------------------------------------------------------------------------------------------


 13 CALLS TO NUMERICAL SOLUTION IN TIME STEP 4 STRESS PERIOD 19
 18 TOTAL ITERATIONS

 INNER ITERATION SUMMARY
 --------------------------------------------------------------------------------------------------------------------------------------
      TOTAL      OUTER      INNER                                                            MAXIMUM                                   
  ITERATION  ITERATION  ITERATION  MAXIMUM CHANGE      MAXIMUM CHANGE MODEL-(CELLID)        RESIDUAL    MAXIMUM RESIDUAL MODEL-(CELLID)
 --------------------------------------------------------------------------------------------------------------------------------------
          1          1          1     -0.19202329                    1_GWF-(4,26,27)       159.84979                     1_GWF-(6,2,32)
          2          1          2 -5.26303207E-02                    1_GWF-(12,17,7)       88.445495                     1_GWF-(6,4,32)
          3          1          3 -1.45839351E-02                    1_GWF-(1,23,11)       21.506394                     1_GWF-(6,6,32)
          4          1          4 -1.35079394E-02                    1_GWF-(1,23,11)       12.306127                     1_GWF-(6,4,32)
          5          1          5 -8.10890740E-03                    1_GWF-(1,23,11)       4.3035485                   1_GWF-(11,22,10)
          6          2          1  2.68732803E-02                    1_GWF-(4,23,22)      -9.3735023                   1_GWF-(11,23,10)
          7          2          2  1.89382520E-03                   1_GWF-(11,23,10)       3.1360168                   1_GWF-(11,17,10)
          8          3          1  8.06268377E-03                    1_GWF-(4,23,22)      -2.9541775                   1_GWF-(11,23,10)
          9          4          1  1.89007559E-03                    1_GWF-(4,23,22)       1.5877733                   1_GWF-(11,17,10)
         10          5          1 -4.41004944E-04                   1_GWF-(11,18,10)       1.0728886                   1_GWF-(11,17,10)
         11          6          1 -2.92509384E-04                   1_GWF-(11,18,10)      0.72721189                   1_GWF-(11,17,10)
         12          7          1 -2.03574192E-04                   1_GWF-(11,18,10)      0.48612497                    1_GWF-(11,18,9)
         13          8          1 -1.35978175E-04                   1_GWF-(11,18,10)      0.33094724                    1_GWF-(11,16,9)
         14          9          1 -9.62741238E-05                     1_GWF-(1,11,3)      0.22447981                    1_GWF-(11,16,9)
         15         10          1 -9.41474296E-05                     1_GWF-(1,11,3)     -0.23486680                    1_GWF-(9,21,27)
         16         11          1 -6.42220575E-05                     1_GWF-(1,11,3)     -0.14389869                    1_GWF-(9,21,27)
         17         12          1 -3.50757113E-05                     1_GWF-(1,11,3)  7.73117084E-02                    1_GWF-(8,23,13)
         18         13          1 -1.80022390E-05                     1_GWF-(1,11,3)  3.15260287E-02                    1_GWF-(8,23,13)
 --------------------------------------------------------------------------------------------------------------------------------------



 OUTER ITERATION SUMMARY
 ----------------------------------------------------------------------------------------------------------
                                OUTER      INNER                    STEP   MAXIMUM CHANGE MODEL-(CELLID) OR
 OUTER ITERATION STEP       ITERATION  ITERATION  MAXIMUM CHANGE SUCCESS             MODEL-PACKAGE-(NUMBER)
 ----------------------------------------------------------------------------------------------------------
 Model                              1          5     -0.18464207                            1_GWF-(4,27,27)
 Model                              2          2  1.39243820E-02       *                    1_GWF-(4,18,22)
 Package                            2                  601.21244                   1_GWF-SFR_0-(180)-inflow
 Model                              3          1  4.01979868E-03       *                    1_GWF-(4,18,22)
 Package                            3                  89.500894                   1_GWF-SFR_0-(180)-inflow
 Model                              4          1  9.57284244E-04       *                    1_GWF-(4,18,22)
 Package                            4                  10.966195                   1_GWF-SFR_0-(180)-inflow
 Model                              5          1 -7.89586319E-04       *                   1_GWF-(11,19,10)
 Package                            5                  3.0329271                   1_GWF-SFR_0-(180)-inflow
 Model                              6          1 -5.12517807E-04       *                   1_GWF-(11,19,10)
 Package                            6                  1.9702741                   1_GWF-SFR_0-(180)-inflow
 Model                              7          1 -2.92843535E-04       *                   1_GWF-(11,19,10)
 Package                            7                 0.93249268                   1_GWF-SFR_0-(180)-inflow
 Model                              8          1 -1.31038200E-04       *                   1_GWF-(11,20,10)
 Package                            8                 0.54096761                   1_GWF-SFR_0-(180)-inflow
 Model                              9          1 -8.27707694E-05       *                   1_GWF-(11,20,10)
 Package                            9                 0.22227663                   1_GWF-SFR_0-(180)-inflow
 Model                             10          1 -5.42915604E-05       *                   1_GWF-(11,20,10)
 Package                           10                 0.14332860                   1_GWF-SFR_0-(180)-inflow
 Model                             11          1 -2.21978922E-05       *                   1_GWF-(11,20,10)
 Package                           11             8.83922796E-02       *           1_GWF-SFR_0-(180)-inflow
 ----------------------------------------------------------------------------------------------------------


 11 CALLS TO NUMERICAL SOLUTION IN TIME STEP 5 STRESS PERIOD 19
 16 TOTAL ITERATIONS

 INNER ITERATION SUMMARY
 --------------------------------------------------------------------------------------------------------------------------------------
      TOTAL      OUTER      INNER                                                            MAXIMUM                                   
  ITERATION  ITERATION  ITERATION  MAXIMUM CHANGE      MAXIMUM CHANGE MODEL-(CELLID)        RESIDUAL    MAXIMUM RESIDUAL MODEL-(CELLID)
 --------------------------------------------------------------------------------------------------------------------------------------
          1          1          1     -0.19627565                    1_GWF-(4,27,27)       133.45491                    1_GWF-(11,20,7)
          2          1          2 -6.88580708E-02                    1_GWF-(12,24,7)       63.405545                     1_GWF-(6,4,32)
          3          1          3 -2.59346203E-02                   1_GWF-(13,26,26)       21.611359                    1_GWF-(11,18,9)
          4          1          4 -1.18378759E-02                   1_GWF-(11,21,10)       10.263133                    1_GWF-(11,18,9)
          5          1          5 -7.96742539E-03                   1_GWF-(11,21,10)       4.8513015                    1_GWF-(11,18,9)
          6          2          1  1.33512728E-02                    1_GWF-(4,18,22)      -5.8714850                   1_GWF-(11,25,10)
          7          2          2 -1.56532662E-03                    1_GWF-(1,21,11)       3.0597095                    1_GWF-(11,18,9)
          8          3          1  4.01979868E-03                    1_GWF-(4,18,22)       2.4614256                    1_GWF-(11,18,9)
          9          4          1  9.57284244E-04                    1_GWF-(4,18,22)       1.8036185                    1_GWF-(11,18,9)
         10          5          1 -7.89586319E-04                   1_GWF-(11,19,10)       1.0856168                    1_GWF-(11,18,9)
         11          6          1 -5.12517807E-04                   1_GWF-(11,19,10)      0.56944015                    1_GWF-(11,18,9)
         12          7          1 -2.92843535E-04                   1_GWF-(11,19,10)     -0.41778344                    1_GWF-(5,20,27)
         13          8          1 -1.31038200E-04                   1_GWF-(11,20,10)      0.16117191                    1_GWF-(11,18,9)
         14          9          1 -8.27707694E-05                   1_GWF-(11,20,10)      0.12354819                     1_GWF-(4,3,29)
         15         10          1 -5.42915604E-05                   1_GWF-(11,20,10)  7.32463452E-02                     1_GWF-(4,3,29)
         16         11          1 -2.21978923E-05                   1_GWF-(11,20,10)  4.31531280E-02                     1_GWF-(2,22,3)
 --------------------------------------------------------------------------------------------------------------------------------------



 MEMORY MANAGER TOTAL STORAGE BY DATA TYPE, IN MEGABYTES
 -------------------------------
                    ALLOCATED   
 DATA TYPE           MEMORY     
 -------------------------------
 Character        2.56490000E-02
 Logical          4.40000000E-05
 Integer          3.5752920     
 Real             5.9541360     
 -------------------------------
 Total            9.5551210     
 -------------------------------


 
 Run end date and time (yyyy/mm/dd hh:mm:ss): 2021/05/19 11:49:24
 Elapsed run time:  7.575 Seconds

WARNING REPORT:

  1. SFR Package SFR_0 has 3 reach(es) with zero connections.
 Normal termination of simulation.
