                                   MODFLOW 6
                U.S. GEOLOGICAL SURVEY MODULAR HYDROLOGIC MODEL
                            VERSION 6.0.4 03/13/2019

  MODFLOW 6 compiled Sep 10 2019 14:27:06 with GFORTRAN compiler (ver. 9.2.0)

This software has been approved for release by the U.S. Geological 
Survey (USGS). Although the software has been subjected to rigorous 
review, the USGS reserves the right to update the software as needed 
pursuant to further analysis and review. No warranty, expressed or 
implied, is made by the USGS or the U.S. Government as to the 
functionality of the software and related material nor shall the 
fact of release constitute any such warranty. Furthermore, the 
software is released on condition that neither the USGS nor the U.S. 
Government shall be held liable for any damages resulting from its 
authorized or unauthorized use. Also refer to the USGS Water 
Resources Software User Rights Notice for complete use, copyright, 
and distribution information.


System command used to initiate simulation:
mf6

MODFLOW was compiled using uniform precision.
Real Variables
  PRECISION: 15
  KIND: 8
  TINY (smallest non-zero value):    2.225074-308
  HUGE (largest value):    1.797693+308
Integer Variables
  KIND: 4
  HUGE (largest value): 2147483647
  BIT_SIZE: 32


 OPENED mfsim.nam
 FILE TYPE:NAM   UNIT 1001   STATUS:OLD                 
 FORMAT:FORMATTED              ACCESS:SEQUENTIAL          
 ACTION:READ                


 READING SIMULATION OPTIONS
 END OF SIMULATION OPTIONS

 READING SIMULATION TIMING

 OPENED mfsim.tdis
 FILE TYPE:TDIS   UNIT 1002   STATUS:OLD                 
 FORMAT:FORMATTED              ACCESS:SEQUENTIAL          
 ACTION:READ                


 TDIS -- TEMPORAL DISCRETIZATION PACKAGE,
 VERSION 1 : 11/13/2014 - INPUT READ FROM UNIT 1002
 PROCESSING TDIS OPTIONS
    SIMULATION TIME UNIT IS DAYS
    SIMULATION STARTING DATE AND TIME IS 1998-04-01                    
 END OF TDIS OPTIONS
 PROCESSING TDIS DIMENSIONS
   19 STRESS PERIOD(S) IN SIMULATION
 END OF TDIS DIMENSIONS
 PROCESSING TDIS PERIODDATA


 STRESS PERIOD     LENGTH       TIME STEPS     MULTIPLIER FOR DELT
 ----------------------------------------------------------------------------
        1         1.000000          1                    1.000
        2         3287.000         10                    1.500
        3         183.0000          5                    1.500
        4         183.0000          5                    1.500
        5         183.0000          5                    1.500
        6         182.0000          5                    1.500
        7         183.0000          5                    1.500
        8         182.0000          5                    1.500
        9         183.0000          5                    1.500
       10         182.0000          5                    1.500
       11         183.0000          5                    1.500
       12         183.0000          5                    1.500
       13         183.0000          5                    1.500
       14         182.0000          5                    1.500
       15         183.0000          5                    1.500
       16         182.0000          5                    1.500
       17         183.0000          5                    1.500
       18         182.0000          5                    1.500
       19         183.0000          5                    1.500
 END OF TDIS PERIODDATA
 END OF SIMULATION TIMING

 READING SIMULATION MODELS
    GWF6 model SHELLMOUND will be created as model 1
 END OF SIMULATION MODELS

 READING SIMULATION EXCHANGES
 END OF SIMULATION EXCHANGES

 READING SOLUTIONGROUP

 Creating solution: SLN_1           

 OPENED mfsim.ims
 FILE TYPE:IMS   UNIT 1013   STATUS:OLD                 
 FORMAT:FORMATTED              ACCESS:SEQUENTIAL          
 ACTION:READ                

 END OF SIMULATION SOLUTIONGROUP

 IMS -- ITERATIVE MODEL SOLUTION PACKAGE, VERSION 6, 4/28/2017
         INPUT READ FROM UNIT 1013

 PROCESSING IMS OPTIONS
 MODERATE OPTION:
 DEFAULT SOLVER INPUT VALUES REFLECT MODERETELY NONLINEAR MODEL
 END OF IMS OPTIONS

 PROCESSING IMS NONLINEAR
 END OF IMS NONLINEAR DATA
 **UNDER-RELAXATION WILL BE USED***

 ***IMS LINEAR SOLVER WILL BE USED***

 IMSLINEAR -- UNSTRUCTURED LINEAR SOLUTION PACKAGE, VERSION 8, 04/28/2017

 PROCESSING LINEAR DATA
 END OF LINEAR DATA

 OUTER ITERATION CONVERGENCE CRITERION     (HCLOSE) =    0.100000E+00
 OUTER ITERATION BOUNDARY FLOW RESIDUAL (RCLOSEBND) =    0.100000E+05
 MAXIMUM NUMBER OF OUTER ITERATIONS        (MXITER) =       200
 SOLVER PRINTOUT INDEX                     (IPRIMS) =         2
 NONLINEAR ITERATION METHOD            (NONLINMETH) =         3
 LINEAR SOLUTION METHOD                   (LINMETH) =         1
 UNDER-RELAXATION WEIGHT REDUCTION FACTOR   (THETA) =    0.700000E+00
 UNDER-RELAXATION WEIGHT INCREASE INCREMENT (KAPPA) =    0.100000E+00
 UNDER-RELAXATION PREVIOUS HISTORY FACTOR   (GAMMA) =    0.000000E+00
 UNDER-RELAXATIONMOMENTUM TERM          (AMOMENTUM) =    0.000000E+00
    MAXIMUM NUMBER OF BACKTRACKS         (NUMTRACK) =         0

       SOLUTION BY THE BICONJUGATE-GRADIENT STABILIZED METHOD
 ------------------------------------------------------------------
 MAXIMUM OF    200 CALLS OF SOLUTION ROUTINE
 MAXIMUM OF    100 INTERNAL ITERATIONS PER CALL TO SOLUTION ROUTINE
 LINEAR ACCELERATION METHOD            = BCGS      
 MATRIX PRECONDITIONING TYPE           = INCOMPLETE LUT      
 MATRIX SCALING APPROACH               = NO SCALING          
 MATRIX REORDERING APPROACH            = ORIGINAL ORDERING        
 NUMBER OF ORTHOGONALIZATIONS          =        0
 HEAD CHANGE CRITERION FOR CLOSURE     =    0.10000E-01
 RESIDUAL CHANGE CRITERION FOR CLOSURE =    0.10000E-03
 RESIDUAL CONVERGENCE OPTION           =        3
 RESIDUAL CONVERGENCE NORM             = RELATIVE L2NORM 
 RELAXATION FACTOR                     =    0.00000E+00
 NUMBER OF LEVELS                      =              7
 DROP TOLERANCE                        =    0.10000E-02


1
                            STRESS PERIOD NO.    1, LENGTH =   1.000000    
                            -----------------------------------------------

                              NUMBER OF TIME STEPS =     1

                               MULTIPLIER FOR DELT =     1.000

                            INITIAL TIME STEP SIZE =   1.000000    



 PSEUDO-TRANSIENT CONTINUATION WILL BE APPLIED TO MODEL 1 ("SHELLMOUND") DURING THIS TIME STEP


 OUTER ITERATION SUMMARY
 ---------------------------------------------------------------------------------------
                       OUTER     INNER         MAXIMUM                    MAXIMUM CHANGE
                   ITERATION ITERATION          CHANGE                    MODEL-(CELLID)
 ---------------------------------------------------------------------------------------
 Linear Solver             1         2    -1.00770                        1_GWF-(4,2,32)
 Under-relaxation          1              -1.00770                        1_GWF-(4,2,32)
 Linear Solver             2         2    -1.55408                        1_GWF-(6,2,32)
 Under-relaxation          2              -1.55408                        1_GWF-(6,2,32)
 Linear Solver             3         2    -1.10329                        1_GWF-(6,2,32)
 Under-relaxation          3              -1.10329                        1_GWF-(6,2,32)
 Linear Solver             4         2   -0.862790                       1_GWF-(13,23,3)
 Under-relaxation          4             -0.862790                       1_GWF-(13,23,3)
 Linear Solver             5         2   -0.771258                       1_GWF-(13,23,3)
 Under-relaxation          5             -0.771258                       1_GWF-(13,23,3)
 Linear Solver             6         2   -0.685868                       1_GWF-(13,18,3)
 Under-relaxation          6             -0.685868                       1_GWF-(13,18,3)
 Linear Solver             7         2   -0.601840                       1_GWF-(13,18,3)
 Under-relaxation          7             -0.601840                       1_GWF-(13,18,3)
 Linear Solver             8         3   -0.560577                       1_GWF-(13,18,3)
 Under-relaxation          8             -0.560577                       1_GWF-(13,18,3)
 Linear Solver             9         3   -0.461906                       1_GWF-(13,18,3)
 Under-relaxation          9             -0.461906                       1_GWF-(13,18,3)
 Linear Solver            10         3   -0.458550                        1_GWF-(13,3,7)
 Under-relaxation         10             -0.458550                        1_GWF-(13,3,7)
 Linear Solver            11         3   -0.455960                        1_GWF-(13,3,7)
 Under-relaxation         11             -0.455960                        1_GWF-(13,3,7)
 Linear Solver            12         3   -0.425145                        1_GWF-(13,3,7)
 Under-relaxation         12             -0.425145                        1_GWF-(13,3,7)
 Linear Solver            13         3   -0.378772                       1_GWF-(13,20,3)
 Under-relaxation         13             -0.378772                       1_GWF-(13,20,3)
 Linear Solver            14         3   -0.341109                       1_GWF-(13,20,3)
 Under-relaxation         14             -0.341109                       1_GWF-(13,20,3)
 Linear Solver            15         3   -0.415672                       1_GWF-(13,20,3)
 Under-relaxation         15             -0.415672                       1_GWF-(13,20,3)
 Linear Solver            16         3   -0.374596                        1_GWF-(13,2,9)
 Under-relaxation         16             -0.374596                        1_GWF-(13,2,9)
 Linear Solver            17         3   -0.342402                        1_GWF-(13,2,9)
 Under-relaxation         17             -0.342402                        1_GWF-(13,2,9)
 Linear Solver            18         3   -0.329043                        1_GWF-(13,7,6)
 Under-relaxation         18             -0.329043                        1_GWF-(13,7,6)
 Linear Solver            19         4   -0.329129                        1_GWF-(13,8,6)
 Under-relaxation         19             -0.329129                        1_GWF-(13,8,6)
 Linear Solver            20         4   -0.341235                        1_GWF-(13,8,6)
 Under-relaxation         20             -0.341235                        1_GWF-(13,8,6)
 Linear Solver            21         4   -0.340634                         1_GWF-(1,8,7)
 Under-relaxation         21             -0.340634                         1_GWF-(1,8,7)
 Linear Solver            22         4   -0.339791                         1_GWF-(1,8,7)
 Under-relaxation         22             -0.339791                         1_GWF-(1,8,7)
 Linear Solver            23         4   -0.329619                         1_GWF-(1,8,7)
 Under-relaxation         23             -0.329619                         1_GWF-(1,8,7)
 Linear Solver            24         4   -0.319089                        1_GWF-(13,4,3)
 Under-relaxation         24             -0.319089                        1_GWF-(13,4,3)
 Linear Solver            25         4   -0.326729                        1_GWF-(13,3,3)
 Under-relaxation         25             -0.326729                        1_GWF-(13,3,3)
 Linear Solver            26         4   -0.341935                        1_GWF-(13,2,3)
 Under-relaxation         26             -0.341935                        1_GWF-(13,2,3)
 Linear Solver            27         4   -0.355072                        1_GWF-(13,2,3)
 Under-relaxation         27             -0.355072                        1_GWF-(13,2,3)
 Linear Solver            28         4   -0.361161                        1_GWF-(13,2,3)
 Under-relaxation         28             -0.361161                        1_GWF-(13,2,3)
 Linear Solver            29         3   -0.360811                        1_GWF-(13,2,3)
 Under-relaxation         29             -0.360811                        1_GWF-(13,2,3)
 Linear Solver            30         4   -0.350685                        1_GWF-(13,2,3)
 Under-relaxation         30             -0.350685                        1_GWF-(13,2,3)
 Linear Solver            31         4   -0.336071                        1_GWF-(13,2,3)
 Under-relaxation         31             -0.336071                        1_GWF-(13,2,3)
 Linear Solver            32         4   -0.323072                        1_GWF-(13,2,3)
 Under-relaxation         32             -0.323072                        1_GWF-(13,2,3)
 Linear Solver            33         4   -0.303056                        1_GWF-(13,2,3)
 Under-relaxation         33             -0.303056                        1_GWF-(13,2,3)
 Linear Solver            34         4   -0.278375                        1_GWF-(13,2,3)
 Under-relaxation         34             -0.278375                        1_GWF-(13,2,3)
 Linear Solver            35         4   -0.250279                        1_GWF-(13,2,3)
 Under-relaxation         35             -0.250279                        1_GWF-(13,2,3)
 Linear Solver            36         4   -0.226908                        1_GWF-(13,2,3)
 Under-relaxation         36             -0.226908                        1_GWF-(13,2,3)
 Linear Solver            37         4   -0.222135                       1_GWF-(13,2,21)
 Under-relaxation         37             -0.222135                       1_GWF-(13,2,21)
 Linear Solver            38         4   -0.219033                       1_GWF-(13,2,21)
 Under-relaxation         38             -0.219033                       1_GWF-(13,2,21)
 Linear Solver            39         4   -0.206364                       1_GWF-(13,2,21)
 Under-relaxation         39             -0.206364                       1_GWF-(13,2,21)
 Linear Solver            40         4   -0.204666                       1_GWF-(13,2,21)
 Under-relaxation         40             -0.204666                       1_GWF-(13,2,21)
 Linear Solver            41         4   -0.203199                       1_GWF-(13,2,21)
 Under-relaxation         41             -0.203199                       1_GWF-(13,2,21)
 Linear Solver            42         4   -0.192540                       1_GWF-(13,2,21)
 Under-relaxation         42             -0.192540                       1_GWF-(13,2,21)
 Linear Solver            43         4   -0.188734                       1_GWF-(13,2,20)
 Under-relaxation         43             -0.188734                       1_GWF-(13,2,20)
 Linear Solver            44         4   -0.178887                       1_GWF-(13,2,20)
 Under-relaxation         44             -0.178887                       1_GWF-(13,2,20)
 Linear Solver            45         4   -0.170103                       1_GWF-(13,2,20)
 Under-relaxation         45             -0.170103                       1_GWF-(13,2,20)
 Linear Solver            46         4   -0.178195                       1_GWF-(4,22,30)
 Under-relaxation         46             -0.178195                       1_GWF-(4,22,30)
 Linear Solver            47         4   -0.235371                       1_GWF-(4,23,30)
 Under-relaxation         47             -0.235371                       1_GWF-(4,23,30)
 Linear Solver            48         4   -0.298409                       1_GWF-(4,23,28)
 Under-relaxation         48             -0.298409                       1_GWF-(4,23,28)
 Linear Solver            49         4   -0.238197                       1_GWF-(4,22,27)
 Under-relaxation         49             -0.238197                       1_GWF-(4,22,27)
 Linear Solver            50         4   -0.233940                       1_GWF-(4,20,27)
 Under-relaxation         50             -0.233940                       1_GWF-(4,20,27)
 Linear Solver            51         4   -0.208703                       1_GWF-(4,19,29)
 Under-relaxation         51             -0.208703                       1_GWF-(4,19,29)
 Linear Solver            52         4   -0.176090                       1_GWF-(4,18,30)
 Under-relaxation         52             -0.176090                       1_GWF-(4,18,30)
 Linear Solver            53         4   -0.181483                       1_GWF-(4,17,30)
 Under-relaxation         53             -0.181483                       1_GWF-(4,17,30)
 Linear Solver            54         5   -0.163558                       1_GWF-(4,16,31)
 Under-relaxation         54             -0.163558                       1_GWF-(4,16,31)
 Linear Solver            55         5   -0.174856                       1_GWF-(4,15,32)
 Under-relaxation         55             -0.174856                       1_GWF-(4,15,32)
 Linear Solver            56         6   -0.156293                       1_GWF-(4,26,30)
 Under-relaxation         56             -0.156293                       1_GWF-(4,26,30)
 Linear Solver            57         5   -0.152100                       1_GWF-(4,25,31)
 Under-relaxation         57             -0.152100                       1_GWF-(4,25,31)
 Linear Solver            58         6   -0.127076                       1_GWF-(13,2,23)
 Under-relaxation         58             -0.127076                       1_GWF-(13,2,23)
 Linear Solver            59         5   -0.199665                       1_GWF-(4,23,33)
 Under-relaxation         59             -0.199665                       1_GWF-(4,23,33)
 Linear Solver            60         7   -0.217027                       1_GWF-(4,20,34)
 Under-relaxation         60             -0.217027                       1_GWF-(4,20,34)
 Linear Solver            61         7   -0.157837                       1_GWF-(13,2,29)
 Under-relaxation         61             -0.157837                       1_GWF-(13,2,29)
 Linear Solver            62         7   -0.156604                       1_GWF-(13,2,31)
 Under-relaxation         62             -0.156604                       1_GWF-(13,2,31)
 Linear Solver            63         7   -0.170203                       1_GWF-(13,2,34)
 Under-relaxation         63             -0.170203                       1_GWF-(13,2,34)
 Linear Solver            64         7   -0.166253                       1_GWF-(13,2,34)
 Under-relaxation         64             -0.166253                       1_GWF-(13,2,34)
 Linear Solver            65         7   -0.178311                       1_GWF-(13,2,34)
 Under-relaxation         65             -0.178311                       1_GWF-(13,2,34)
 Linear Solver            66         7   -0.175385                       1_GWF-(13,2,34)
 Under-relaxation         66             -0.175385                       1_GWF-(13,2,34)
 Linear Solver            67         7   -0.208074                       1_GWF-(13,2,34)
 Under-relaxation         67             -0.208074                       1_GWF-(13,2,34)
 Linear Solver            68         7   -0.162593                       1_GWF-(13,2,34)
 Under-relaxation         68             -0.162593                       1_GWF-(13,2,34)
 Linear Solver            69         7   -0.190397                       1_GWF-(13,2,34)
 Under-relaxation         69             -0.190397                       1_GWF-(13,2,34)
 Linear Solver            70         7   -0.174252                       1_GWF-(13,2,34)
 Under-relaxation         70             -0.174252                       1_GWF-(13,2,34)
 Linear Solver            71         7   -0.164103                       1_GWF-(13,2,34)
 Under-relaxation         71             -0.164103                       1_GWF-(13,2,34)
 Linear Solver            72         7   -0.154755                       1_GWF-(13,2,34)
 Under-relaxation         72             -0.154755                       1_GWF-(13,2,34)
 Linear Solver            73         7   -0.145510                       1_GWF-(13,2,34)
 Under-relaxation         73             -0.145510                       1_GWF-(13,2,34)
 Linear Solver            74         7   -0.137037                       1_GWF-(13,2,34)
 Under-relaxation         74             -0.137037                       1_GWF-(13,2,34)
 Linear Solver            75         7   -0.128479                       1_GWF-(13,2,34)
 Under-relaxation         75             -0.128479                       1_GWF-(13,2,34)
 Linear Solver            76         7   -0.120373                       1_GWF-(13,2,34)
 Under-relaxation         76             -0.120373                       1_GWF-(13,2,34)
 Linear Solver            77         7   -0.112537                       1_GWF-(13,2,34)
 Under-relaxation         77             -0.112537                       1_GWF-(13,2,34)
 Linear Solver            78         7   -9.186574E-02                   1_GWF-(13,2,34)

 78 CALLS TO NUMERICAL SOLUTION IN TIME STEP 1 STRESS PERIOD 1
 351 TOTAL ITERATIONS

 INNER ITERATION SUMMARY
 --------------------------------------------------------------------------------------------------------------------------------
     TOTAL      OUTER     INNER                    MAXIMUM CHANGE        MAXIMUM                  MAXIMUM RESIDUAL        MAXIMUM
 ITERATION  ITERATION ITERATION                    MODEL-(CELLID)         CHANGE                    MODEL-(CELLID)       RESIDUAL
 --------------------------------------------------------------------------------------------------------------------------------
          1         1         1                     1_GWF-(1,2,3) -0.1575871E-01                    1_GWF-(6,5,30)   39.40687    
          2         1         2                     1_GWF-(1,2,3) -0.6265237E-05                    1_GWF-(6,4,31)  0.3264864E-01
          3         2         1                     1_GWF-(1,2,3) -0.4007561E-01                    1_GWF-(6,5,30)   209.3093    
          4         2         2                     1_GWF-(1,2,3) -0.1124012E-03                    1_GWF-(6,4,31)   1.258667    
          5         3         1                     1_GWF-(1,2,3) -0.4824301E-01                   1_GWF-(6,12,30)   259.1293    
          6         3         2                     1_GWF-(1,2,3) -0.2521952E-03                    1_GWF-(6,4,31)   2.347129    
          7         4         1                     1_GWF-(1,2,3) -0.5213736E-01                   1_GWF-(6,12,30)   291.4337    
          8         4         2                     1_GWF-(1,2,3) -0.4544054E-03                    1_GWF-(6,4,31)   3.176455    
          9         5         1                     1_GWF-(1,2,3) -0.5419840E-01                   1_GWF-(6,12,30)   303.7224    
         10         5         2                     1_GWF-(1,2,3) -0.7731915E-03                    1_GWF-(6,4,31)   4.236397    
         11         6         1                     1_GWF-(1,2,3) -0.5318946E-01                   1_GWF-(6,11,31)   292.7563    
         12         6         2                     1_GWF-(1,2,3) -0.1203845E-02                    1_GWF-(6,4,31)   5.272205    
         13         7         1                     1_GWF-(1,2,3) -0.4823325E-01                    1_GWF-(6,3,32)   253.9705    
         14         7         2                     1_GWF-(1,2,3) -0.1597837E-02                    1_GWF-(6,3,32)   5.733263    
         15         8         1                     1_GWF-(1,2,3) -0.4510025E-01                    1_GWF-(6,3,32)   295.8118    
         16         8         2                     1_GWF-(1,2,3) -0.2715640E-02                    1_GWF-(6,3,32)   10.01460    
         17         8         3                     1_GWF-(1,2,3) -0.5110488E-05                   1_GWF-(6,10,32)  0.6185518    
         18         9         1                     1_GWF-(1,2,3) -0.3555811E-01                    1_GWF-(6,3,32)   280.6038    
         19         9         2                     1_GWF-(1,2,3) -0.3505439E-02                   1_GWF-(6,10,32)   12.68124    
         20         9         3                     1_GWF-(1,2,3) -0.2298435E-04                   1_GWF-(6,10,32)   1.005637    
         21        10         1                     1_GWF-(1,2,3) -0.2425231E-01                    1_GWF-(6,3,32)   265.3776    
         22        10         2                     1_GWF-(1,2,3) -0.4547136E-02                    1_GWF-(6,5,32)   18.11218    
         23        10         3                     1_GWF-(1,2,3) -0.6540600E-04                   1_GWF-(6,10,32)   1.705490    
         24        11         1                     1_GWF-(1,2,3) -0.1145663E-01                   1_GWF-(6,10,31)   279.3511    
         25        11         2                     1_GWF-(1,2,3) -0.5302687E-02                    1_GWF-(6,5,32)   23.82772    
         26        11         3                     1_GWF-(1,2,3) -0.1253597E-03                    1_GWF-(6,9,33)   2.614191    
         27        12         1                     1_GWF-(1,2,3) -0.1031414E-03                    1_GWF-(6,7,28)   387.0044    
         28        12         2                     1_GWF-(1,2,3) -0.5527158E-02                    1_GWF-(6,5,32)   29.60369    
         29        12         3                     1_GWF-(1,2,3) -0.1809289E-03                    1_GWF-(6,9,33)   3.608927    
         30        13         1                     1_GWF-(1,2,3)  0.5925474E-02                    1_GWF-(6,7,28)   675.1318    
         31        13         2                     1_GWF-(1,2,3) -0.4359319E-02                    1_GWF-(6,5,32)   25.80598    
         32        13         3                     1_GWF-(1,2,3) -0.1379863E-03                    1_GWF-(6,9,33)   3.608407    
         33        14         1                     1_GWF-(1,2,3)  0.8030958E-02                    1_GWF-(6,7,28)   772.0594    
         34        14         2                     1_GWF-(1,2,3) -0.3606523E-02                    1_GWF-(6,5,32)   24.00601    
         35        14         3                     1_GWF-(1,2,3) -0.1061928E-03                    1_GWF-(6,6,33)   3.386828    
         36        15         1                     1_GWF-(1,2,3)  0.1080315E-01                   1_GWF-(6,17,33)   336.3764    
         37        15         2                     1_GWF-(1,2,3) -0.7326861E-02                    1_GWF-(6,6,33)   50.45995    
         38        15         3                     1_GWF-(1,2,3) -0.5038846E-03                    1_GWF-(6,6,33)   10.17470    
         39        16         1                     1_GWF-(1,2,3)  0.3662171E-03                   1_GWF-(6,17,33)   332.9017    
         40        16         2                     1_GWF-(1,2,3) -0.7160393E-02                    1_GWF-(6,6,33)   52.59501    
         41        16         3                     1_GWF-(1,2,3) -0.4169555E-03                    1_GWF-(6,6,33)   11.16485    
         42        17         1                     1_GWF-(1,2,3) -0.1705141E-01                   1_GWF-(6,17,33)   339.3464    
         43        17         2                     1_GWF-(1,2,3) -0.7991079E-02                    1_GWF-(6,6,33)   56.51244    
         44        17         3                     1_GWF-(1,2,3) -0.3428738E-03                    1_GWF-(6,6,33)   13.30220    
         45        18         1                     1_GWF-(1,2,3) -0.4308594E-01                   1_GWF-(6,17,33)   341.5474    
         46        18         2                     1_GWF-(1,2,3) -0.1004677E-01                    1_GWF-(6,6,33)   58.01792    
         47        18         3                     1_GWF-(1,2,3) -0.3050066E-03                    1_GWF-(6,6,33)   15.11625    
         48        19         1                     1_GWF-(1,2,3) -0.7600236E-01                   1_GWF-(10,6,33)   394.5081    
         49        19         2                     1_GWF-(1,2,3) -0.1387898E-01                    1_GWF-(6,6,33)   58.52974    
         50        19         3                     1_GWF-(1,2,3) -0.4351741E-03                    1_GWF-(6,6,33)   16.76968    
         51        19         4                     1_GWF-(1,2,3)  0.7966168E-04                    1_GWF-(6,6,33)   4.010232    
         52        20         1                     1_GWF-(1,2,3) -0.1142391                       1_GWF-(4,25,31)   341.5226    
         53        20         2                     1_GWF-(1,2,3) -0.1952120E-01                    1_GWF-(6,6,33)   59.93018    
         54        20         3                     1_GWF-(1,2,3) -0.6714506E-03                    1_GWF-(6,9,33)   19.43473    
         55        20         4                     1_GWF-(1,2,3)  0.1082298E-03                    1_GWF-(6,6,33)   4.317543    
         56        21         1                     1_GWF-(1,2,3) -0.1503263                       1_GWF-(4,25,31)   342.3361    
         57        21         2                     1_GWF-(1,2,3) -0.2434470E-01                    1_GWF-(6,8,33)   57.64891    
         58        21         3                     1_GWF-(1,2,3) -0.7651698E-03                    1_GWF-(6,9,33)   20.58538    
         59        21         4                     1_GWF-(1,2,3)  0.1373862E-03                    1_GWF-(6,6,33)   4.935398    
         60        22         1                     1_GWF-(1,2,3) -0.1863972                       1_GWF-(4,25,31)   336.4661    
         61        22         2                     1_GWF-(1,2,3) -0.3028053E-01                    1_GWF-(6,9,33)   55.02848    
         62        22         3                     1_GWF-(1,2,3) -0.9615327E-03                    1_GWF-(6,9,33)   21.45666    
         63        22         4                     1_GWF-(1,2,3)  0.1676850E-03                    1_GWF-(6,9,33)   5.991566    
         64        23         1                     1_GWF-(1,2,3) -0.2194728                       1_GWF-(4,25,31)   327.8330    
         65        23         2                     1_GWF-(1,2,3) -0.3671576E-01                    1_GWF-(6,9,33)   52.04714    
         66        23         3                     1_GWF-(1,2,3) -0.1255156E-02                    1_GWF-(6,9,33)   21.49727    
         67        23         4                     1_GWF-(1,2,3)  0.2178143E-03                    1_GWF-(6,9,33)   6.654405    
         68        24         1                     1_GWF-(1,2,3) -0.2474543                       1_GWF-(4,25,31)   316.7036    
         69        24         2                     1_GWF-(1,2,3) -0.4343791E-01                   1_GWF-(6,10,32)   49.75105    
         70        24         3                     1_GWF-(1,2,3) -0.1751280E-02                    1_GWF-(6,9,33)   21.46456    
         71        24         4                     1_GWF-(1,2,3)  0.2746841E-03                    1_GWF-(6,9,33)   7.547763    
         72        25         1                     1_GWF-(1,2,3) -0.2683920                       1_GWF-(4,25,31)   302.2741    
         73        25         2                     1_GWF-(1,2,3) -0.4992994E-01                   1_GWF-(6,10,33)   52.13942    
         74        25         3                     1_GWF-(1,2,3) -0.2213387E-02                   1_GWF-(6,10,33)   22.62756    
         75        25         4                     1_GWF-(1,2,3)  0.3953536E-03                    1_GWF-(6,8,33)   9.393897    
         76        26         1                     1_GWF-(1,2,3) -0.2833070                       1_GWF-(4,23,13)   300.1289    
         77        26         2                     1_GWF-(1,2,3) -0.5629063E-01                   1_GWF-(6,11,33)   50.77716    
         78        26         3                     1_GWF-(1,2,3) -0.2895737E-02                    1_GWF-(6,9,33)   21.21045    
         79        26         4                     1_GWF-(1,2,3)  0.5905331E-03                    1_GWF-(6,9,33)   9.418496    
         80        27         1                     1_GWF-(1,2,3) -0.2907681                       1_GWF-(4,23,13)   301.4570    
         81        27         2                     1_GWF-(1,2,3) -0.6175971E-01                    1_GWF-(6,3,27)   44.75809    
         82        27         3                     1_GWF-(1,2,3) -0.3429485E-02                    1_GWF-(6,9,33)   19.78952    
         83        27         4                     1_GWF-(1,2,3)  0.9268931E-03                    1_GWF-(6,9,33)   9.163526    
         84        28         1                     1_GWF-(1,2,3) -0.2917767                       1_GWF-(4,23,13)   299.7070    
         85        28         2                     1_GWF-(1,2,3) -0.6593993E-01                   1_GWF-(6,11,33)   41.58826    
         86        28         3                     1_GWF-(1,2,3) -0.4582207E-02                    1_GWF-(6,9,33)   18.15616    
         87        28         4                     1_GWF-(1,2,3)  0.1183211E-02                    1_GWF-(6,9,33)   8.986783    
         88        29         1                     1_GWF-(1,2,3) -0.2862102                       1_GWF-(4,23,13)   284.6164    
         89        29         2                     1_GWF-(1,2,3) -0.6901249E-01                   1_GWF-(11,21,7)   42.38620    
         90        29         3                     1_GWF-(1,2,3) -0.5542270E-02                    1_GWF-(6,9,33)   16.55407    
         91        30         1                     1_GWF-(1,2,3) -0.2754628                       1_GWF-(4,23,13)   268.5207    
         92        30         2                     1_GWF-(1,2,3) -0.7071394E-01                   1_GWF-(11,21,7)   44.61390    
         93        30         3                     1_GWF-(1,2,3) -0.6480935E-02                    1_GWF-(6,9,33)   14.81426    
         94        30         4                     1_GWF-(1,2,3)  0.2019951E-02                    1_GWF-(6,6,33)   7.707860    
         95        31         1                     1_GWF-(1,2,3) -0.2603806                       1_GWF-(4,23,13)   250.0956    
         96        31         2                     1_GWF-(1,2,3) -0.7059845E-01                   1_GWF-(11,21,7)   47.43213    
         97        31         3                     1_GWF-(1,2,3) -0.7558169E-02                    1_GWF-(6,9,33)   13.25234    
         98        31         4                     1_GWF-(1,2,3)  0.2508329E-02                    1_GWF-(6,6,33)   6.576855    
         99        32         1                     1_GWF-(1,2,3) -0.2445115                       1_GWF-(4,23,13)   239.8962    
        100        32         2                     1_GWF-(1,2,3) -0.7254082E-01                   1_GWF-(11,21,7)   51.85509    
        101        32         3                     1_GWF-(1,2,3) -0.9094722E-02                   1_GWF-(11,21,7)   12.38817    
        102        32         4                     1_GWF-(1,2,3)  0.3113696E-02                    1_GWF-(6,6,33)   5.754833    
        103        33         1                     1_GWF-(1,2,3) -0.2246704                       1_GWF-(4,23,13)   227.0720    
        104        33         2                     1_GWF-(1,2,3) -0.7168648E-01                   1_GWF-(11,21,7)   55.22360    
        105        33         3                     1_GWF-(1,2,3) -0.1022572E-01                   1_GWF-(11,21,7)   12.85334    
        106        33         4                     1_GWF-(1,2,3)  0.3560246E-02                    1_GWF-(6,6,33)   4.802170    
        107        34         1                     1_GWF-(1,2,3) -0.2028730                       1_GWF-(4,23,13)   205.2842    
        108        34         2                     1_GWF-(1,2,3) -0.6788688E-01                   1_GWF-(11,21,7)   56.49665    
        109        34         3                     1_GWF-(1,2,3) -0.1133887E-01                   1_GWF-(11,21,7)   12.81869    
        110        34         4                     1_GWF-(1,2,3)  0.3752594E-02                     1_GWF-(9,3,5)  -4.487841    
        111        35         1                     1_GWF-(1,2,3) -0.1799066                       1_GWF-(4,17,17)   266.1929    
        112        35         2                     1_GWF-(1,2,3) -0.6198882E-01                   1_GWF-(11,21,7)   56.29941    
        113        35         3                     1_GWF-(1,2,3) -0.1208087E-01                   1_GWF-(11,21,7)   12.21498    
        114        35         4                     1_GWF-(1,2,3)  0.3721463E-02                     1_GWF-(9,3,5)  -4.413432    
        115        36         1                     1_GWF-(1,2,3) -0.1589540                        1_GWF-(6,3,27)   205.0809    
        116        36         2                     1_GWF-(1,2,3) -0.5831566E-01                    1_GWF-(6,3,27)   71.22909    
        117        36         3                     1_GWF-(1,2,3) -0.1339291E-01                   1_GWF-(11,21,7)   12.32605    
        118        36         4                     1_GWF-(1,2,3)  0.3774708E-02                     1_GWF-(9,3,5)  -4.608503    
        119        37         1                     1_GWF-(1,2,3) -0.1367802                        1_GWF-(6,3,27)   199.3444    
        120        37         2                     1_GWF-(1,2,3) -0.5235847E-01                    1_GWF-(6,3,27)   65.19838    
        121        37         3                     1_GWF-(1,2,3) -0.1306283E-01                   1_GWF-(11,21,7)   12.06934    
        122        37         4                     1_GWF-(1,2,3)  0.3268012E-02                     1_GWF-(9,4,4)  -4.814694    
        123        38         1                     1_GWF-(1,2,3) -0.1166743                        1_GWF-(6,3,27)   192.3865    
        124        38         2                     1_GWF-(1,2,3) -0.4640946E-01                    1_GWF-(6,3,27)   66.13841    
        125        38         3                     1_GWF-(1,2,3) -0.1335083E-01                   1_GWF-(11,21,7)   11.91534    
        126        38         4                     1_GWF-(1,2,3)  0.2880948E-02                     1_GWF-(9,4,4)  -4.646840    
        127        39         1                     1_GWF-(1,2,3) -0.9707614E-01                    1_GWF-(4,8,11)   190.5372    
        128        39         2                     1_GWF-(1,2,3) -0.3735843E-01                    1_GWF-(6,3,27)   64.28206    
        129        39         3                     1_GWF-(1,2,3) -0.1207359E-01                   1_GWF-(11,21,7)   10.62973    
        130        39         4                     1_GWF-(1,2,3)  0.2184463E-02                     1_GWF-(9,4,4)  -4.273166    
        131        40         1                     1_GWF-(1,2,3) -0.8153373E-01                    1_GWF-(4,7,11)   183.0938    
        132        40         2                     1_GWF-(1,2,3) -0.3340528E-01                    1_GWF-(6,3,27)   65.46214    
        133        40         3                     1_GWF-(1,2,3) -0.1220717E-01                   1_GWF-(11,21,7)   11.15186    
        134        40         4                     1_GWF-(1,2,3)  0.1755828E-02                     1_GWF-(9,4,4)  -4.221594    
        135        41         1                     1_GWF-(1,2,3) -0.6754374E-01                    1_GWF-(6,3,27)   162.0790    
        136        41         2                     1_GWF-(1,2,3) -0.2978399E-01                    1_GWF-(6,3,27)   57.85387    
        137        41         3                     1_GWF-(1,2,3) -0.1166975E-01                   1_GWF-(11,21,7)   13.26421    
        138        41         4                     1_GWF-(1,2,3)  0.8358062E-03                     1_GWF-(9,4,4)  -3.864389    
        139        42         1                     1_GWF-(1,2,3) -0.5444010E-01                    1_GWF-(6,3,27)   113.5306    
        140        42         2                     1_GWF-(1,2,3) -0.2428834E-01                   1_GWF-(11,20,8)   51.04051    
        141        42         3                     1_GWF-(1,2,3) -0.9853773E-02                   1_GWF-(11,21,7)   14.15913    
        142        42         4                     1_GWF-(1,2,3) -0.8297116E-04                   1_GWF-(11,21,7)   3.341828    
        143        43         1                     1_GWF-(1,2,3) -0.4411414E-01                    1_GWF-(6,3,27)   108.3323    
        144        43         2                     1_GWF-(1,2,3) -0.2048632E-01                   1_GWF-(11,20,8)   48.19805    
        145        43         3                     1_GWF-(1,2,3) -0.9146205E-02                   1_GWF-(11,20,8)   14.57666    
        146        43         4                     1_GWF-(1,2,3) -0.5817083E-03                   1_GWF-(11,22,7)   3.355527    
        147        44         1                     1_GWF-(1,2,3) -0.3525885E-01                    1_GWF-(6,4,27)   124.6340    
        148        44         2                     1_GWF-(1,2,3) -0.1585804E-01                    1_GWF-(6,3,27)   46.68492    
        149        44         3                     1_GWF-(1,2,3) -0.9160544E-02                   1_GWF-(11,20,8)   9.897314    
        150        44         4                     1_GWF-(1,2,3)  0.2026329E-03                     1_GWF-(9,4,4)  -3.701179    
        151        45         1                     1_GWF-(1,2,3) -0.2789993E-01                    1_GWF-(6,4,27)   116.4297    
        152        45         2                     1_GWF-(1,2,3) -0.1281693E-01                    1_GWF-(6,4,27)   48.31969    
        153        45         3                     1_GWF-(1,2,3) -0.8254195E-02                   1_GWF-(11,20,8)   9.852684    
        154        45         4                     1_GWF-(1,2,3) -0.2475934E-03                     1_GWF-(9,3,5)  -3.243050    
        155        46         1                     1_GWF-(1,2,3) -0.2025385E-01                   1_GWF-(6,21,32)   99.90696    
        156        46         2                     1_GWF-(1,2,3) -0.1046224E-01                    1_GWF-(6,3,27)   41.62619    
        157        46         3                     1_GWF-(1,2,3) -0.6406778E-02                   1_GWF-(11,20,8)   7.761652    
        158        46         4                     1_GWF-(1,2,3) -0.7283089E-05                     1_GWF-(9,4,4)  -2.938050    
        159        47         1                     1_GWF-(1,2,3) -0.1681318E-01                   1_GWF-(6,21,32)   95.87363    
        160        47         2                     1_GWF-(1,2,3) -0.7632307E-02                    1_GWF-(6,3,27)   48.30652    
        161        47         3                     1_GWF-(1,2,3) -0.4850845E-02                    1_GWF-(6,3,27)   9.314286    
        162        47         4                     1_GWF-(1,2,3) -0.2207570E-03                    1_GWF-(6,2,30)   3.621972    
        163        48         1                     1_GWF-(1,2,3) -0.1380280E-01                   1_GWF-(4,23,28)   102.6872    
        164        48         2                     1_GWF-(1,2,3) -0.5478113E-02                    1_GWF-(6,3,27)   41.82769    
        165        48         3                     1_GWF-(1,2,3) -0.3547519E-02                    1_GWF-(6,3,27)   7.615711    
        166        48         4                     1_GWF-(1,2,3) -0.5693785E-04                    1_GWF-(6,2,28)   3.083460    
        167        49         1                     1_GWF-(1,2,3) -0.1293444E-01                   1_GWF-(4,21,27)   113.1497    
        168        49         2                     1_GWF-(1,2,3) -0.6384251E-02                    1_GWF-(6,3,27)   52.20910    
        169        49         3                     1_GWF-(1,2,3) -0.5103204E-02                    1_GWF-(6,3,27)   12.50651    
        170        49         4                     1_GWF-(1,2,3) -0.5878878E-03                    1_GWF-(6,2,28)   5.499680    
        171        50         1                     1_GWF-(1,2,3) -0.9582056E-02                    1_GWF-(6,7,27)   76.92798    
        172        50         2                     1_GWF-(1,2,3) -0.4337557E-02                    1_GWF-(6,4,27)   42.12687    
        173        50         3                     1_GWF-(1,2,3) -0.3498459E-02                    1_GWF-(6,3,28)   11.35082    
        174        50         4                     1_GWF-(1,2,3) -0.2642205E-03                    1_GWF-(6,3,28)   5.454400    
        175        51         1                     1_GWF-(1,2,3) -0.8513572E-02                    1_GWF-(6,7,27)   76.00829    
        176        51         2                     1_GWF-(1,2,3) -0.4145649E-02                    1_GWF-(6,6,27)   41.14412    
        177        51         3                     1_GWF-(1,2,3) -0.3688767E-02                    1_GWF-(6,3,28)   11.22621    
        178        51         4                     1_GWF-(1,2,3) -0.4993644E-03                    1_GWF-(6,2,31)   5.231820    
        179        52         1                     1_GWF-(1,2,3) -0.6924855E-02                   1_GWF-(6,18,31)   79.51914    
        180        52         2                     1_GWF-(1,2,3) -0.3833830E-02                    1_GWF-(6,5,27)   43.25543    
        181        52         3                     1_GWF-(1,2,3) -0.3347023E-02                    1_GWF-(6,4,28)   12.77689    
        182        52         4                     1_GWF-(1,2,3) -0.6494736E-03                    1_GWF-(6,2,28)   5.067744    
        183        53         1                     1_GWF-(1,2,3) -0.5443346E-02                   1_GWF-(6,12,30)   114.7294    
        184        53         2                     1_GWF-(1,2,3) -0.3732760E-02                    1_GWF-(6,5,27)   49.92952    
        185        53         3                     1_GWF-(1,2,3) -0.3475677E-02                    1_GWF-(6,6,28)   18.42978    
        186        53         4                     1_GWF-(1,2,3) -0.4683545E-03                    1_GWF-(6,6,28)   10.08549    
        187        54         1                     1_GWF-(1,2,3) -0.4670723E-02                   1_GWF-(6,16,32)   128.7134    
        188        54         2                     1_GWF-(1,2,3) -0.4105421E-02                    1_GWF-(6,8,29)   63.03037    
        189        54         3                     1_GWF-(1,2,3) -0.3723511E-02                    1_GWF-(6,8,29)   38.57965    
        190        54         4                     1_GWF-(1,2,3) -0.1295344E-02                   1_GWF-(6,17,32)  -21.14079    
        191        54         5                     1_GWF-(1,2,3) -0.2946618E-03                   1_GWF-(6,16,32)  -15.48641    
        192        55         1                     1_GWF-(1,2,3) -0.3855757E-02                   1_GWF-(6,15,32)   217.0231    
        193        55         2                     1_GWF-(1,2,3) -0.3410777E-02                   1_GWF-(6,17,32)   66.63673    
        194        55         3                     1_GWF-(1,2,3) -0.2885322E-02                    1_GWF-(6,6,28)   25.99384    
        195        55         4                     1_GWF-(1,2,3) -0.1255176E-02                   1_GWF-(6,16,32)  -24.75402    
        196        55         5                     1_GWF-(1,2,3)  0.3065884E-03                   1_GWF-(6,15,32)  -13.76467    
        197        56         1                     1_GWF-(1,2,3) -0.3108174E-02                   1_GWF-(6,12,31)   116.8596    
        198        56         2                     1_GWF-(1,2,3) -0.2959689E-02                   1_GWF-(6,12,31)   65.75930    
        199        56         3                     1_GWF-(1,2,3) -0.6326707E-02                   1_GWF-(6,13,31)  -77.98737    
        200        56         4                     1_GWF-(1,2,3)  0.2327541E-02                   1_GWF-(6,12,32)   18.38528    
        201        56         5                     1_GWF-(1,2,3)  0.2799726E-03                    1_GWF-(6,8,33)   11.38583    
        202        56         6                     1_GWF-(1,2,3)  0.4560903E-03                    1_GWF-(6,8,33)   8.212204    
        203        57         1                     1_GWF-(1,2,3) -0.2586245E-02                   1_GWF-(5,24,32)   121.9861    
        204        57         2                     1_GWF-(1,2,3) -0.2727874E-02                    1_GWF-(6,5,28)   62.11373    
        205        57         3                     1_GWF-(1,2,3) -0.3010610E-02                   1_GWF-(6,24,31)  -51.09162    
        206        57         4                     1_GWF-(1,2,3) -0.8213491E-03                   1_GWF-(6,24,31)   22.80114    
        207        57         5                     1_GWF-(1,2,3) -0.3521780E-04                    1_GWF-(6,8,33)   12.36774    
        208        58         1                     1_GWF-(1,2,3) -0.2006782E-02                   1_GWF-(6,25,32)   112.7666    
        209        58         2                     1_GWF-(1,2,3) -0.2449770E-02                    1_GWF-(6,5,28)   66.75870    
        210        58         3                     1_GWF-(1,2,3) -0.2335797E-02                   1_GWF-(6,24,32)  -42.10325    
        211        58         4                     1_GWF-(1,2,3) -0.1477732E-02                   1_GWF-(5,24,32)  -31.79835    
        212        58         5                     1_GWF-(1,2,3) -0.1627599E-03                    1_GWF-(6,6,31)   12.64524    
        213        58         6                     1_GWF-(1,2,3)  0.5717449E-03                    1_GWF-(6,5,33)   9.334485    
        214        59         1                     1_GWF-(1,2,3) -0.1521363E-02                   1_GWF-(6,21,32)   131.8630    
        215        59         2                     1_GWF-(1,2,3) -0.2351739E-02                   1_GWF-(6,22,33)   73.86234    
        216        59         3                     1_GWF-(1,2,3) -0.3283406E-02                   1_GWF-(6,24,32)  -91.67552    
        217        59         4                     1_GWF-(1,2,3) -0.7700473E-03                   1_GWF-(6,21,32)  -39.02982    
        218        59         5                     1_GWF-(1,2,3)  0.3335291E-03                   1_GWF-(6,23,33)  -29.26435    
        219        60         1                     1_GWF-(1,2,3) -0.1390373E-02                   1_GWF-(6,19,33)   142.1638    
        220        60         2                     1_GWF-(1,2,3) -0.2362960E-02                   1_GWF-(6,18,32)   100.1271    
        221        60         3                     1_GWF-(1,2,3)  0.1531814E-03                   1_GWF-(6,17,32)   85.98362    
        222        60         4                     1_GWF-(1,2,3) -0.4235337E-02                   1_GWF-(6,19,31)  -25.31889    
        223        60         5                     1_GWF-(1,2,3)  0.3699840E-03                   1_GWF-(6,21,33)  -16.39584    
        224        60         6                     1_GWF-(1,2,3)  0.1231935E-02                   1_GWF-(6,24,33)  -10.71210    
        225        60         7                     1_GWF-(1,2,3)  0.7247036E-04                    1_GWF-(6,5,33)   6.684532    
        226        61         1                     1_GWF-(1,2,3) -0.1276959E-02                   1_GWF-(4,28,31)   118.6956    
        227        61         2                     1_GWF-(1,2,3) -0.2250225E-02                   1_GWF-(6,11,31)   71.74972    
        228        61         3                     1_GWF-(1,2,3) -0.2562194E-02                   1_GWF-(6,11,31)   45.15165    
        229        61         4                     1_GWF-(1,2,3) -0.1539901E-02                   1_GWF-(6,10,32)   26.30077    
        230        61         5                     1_GWF-(1,2,3) -0.4796886E-03                    1_GWF-(6,9,33)   17.09721    
        231        61         6                     1_GWF-(1,2,3)  0.1180817E-02                    1_GWF-(6,7,33)   13.38733    
        232        61         7                     1_GWF-(1,2,3)  0.8476502E-04                    1_GWF-(6,5,33)   10.95521    
        233        62         1                     1_GWF-(1,2,3) -0.9783531E-03                   1_GWF-(4,28,31)   100.7323    
        234        62         2                     1_GWF-(1,2,3) -0.1695415E-02                   1_GWF-(6,11,31)   72.63334    
        235        62         3                     1_GWF-(1,2,3) -0.2249809E-02                   1_GWF-(6,11,31)   46.79529    
        236        62         4                     1_GWF-(1,2,3) -0.1731198E-02                   1_GWF-(6,10,32)   25.05427    
        237        62         5                     1_GWF-(1,2,3) -0.5057765E-03                    1_GWF-(6,9,33)   17.16382    
        238        62         6                     1_GWF-(1,2,3)  0.9711992E-03                    1_GWF-(6,5,33)   14.21983    
        239        62         7                     1_GWF-(1,2,3)  0.1699962E-04                    1_GWF-(6,5,33)   10.87622    
        240        63         1                     1_GWF-(1,2,3) -0.8386139E-03                    1_GWF-(6,7,27)   67.53496    
        241        63         2                     1_GWF-(1,2,3) -0.1697272E-02                    1_GWF-(6,6,27)   69.75942    
        242        63         3                     1_GWF-(1,2,3) -0.2101114E-02                   1_GWF-(6,11,31)   47.05604    
        243        63         4                     1_GWF-(1,2,3) -0.1909677E-02                    1_GWF-(6,6,30)   27.15304    
        244        63         5                     1_GWF-(1,2,3) -0.5775031E-03                    1_GWF-(6,9,33)   17.09180    
        245        63         6                     1_GWF-(1,2,3)  0.1115465E-02                    1_GWF-(6,5,33)   14.79471    
        246        63         7                     1_GWF-(1,2,3)  0.9558579E-04                    1_GWF-(6,5,33)   11.23205    
        247        64         1                     1_GWF-(1,2,3) -0.6920060E-03                   1_GWF-(6,26,31)   79.26684    
        248        64         2                     1_GWF-(1,2,3) -0.1476818E-02                    1_GWF-(6,6,28)   80.24049    
        249        64         3                     1_GWF-(1,2,3) -0.1689868E-02                   1_GWF-(6,11,31)   44.08580    
        250        64         4                     1_GWF-(1,2,3) -0.2020081E-02                    1_GWF-(6,6,30)   28.70350    
        251        64         5                     1_GWF-(1,2,3) -0.3990299E-03                    1_GWF-(6,6,27)  -16.81235    
        252        64         6                     1_GWF-(1,2,3)  0.9721294E-03                    1_GWF-(6,5,33)   14.13058    
        253        64         7                     1_GWF-(1,2,3)  0.1640729E-03                    1_GWF-(6,5,33)   10.46085    
        254        65         1                     1_GWF-(1,2,3) -0.6144388E-03                   1_GWF-(6,27,33)   90.38274    
        255        65         2                     1_GWF-(1,2,3) -0.1575706E-02                    1_GWF-(6,6,28)   78.24073    
        256        65         3                     1_GWF-(1,2,3) -0.1774282E-02                   1_GWF-(6,11,31)   42.97440    
        257        65         4                     1_GWF-(1,2,3) -0.2103502E-02                   1_GWF-(6,25,32)  -34.52361    
        258        65         5                     1_GWF-(1,2,3) -0.3693998E-03                   1_GWF-(6,25,32)  -19.02791    
        259        65         6                     1_GWF-(1,2,3)  0.9867022E-03                   1_GWF-(6,25,33)  -19.55418    
        260        65         7                     1_GWF-(1,2,3)  0.3835269E-03                    1_GWF-(6,5,33)   10.15923    
        261        66         1                     1_GWF-(1,2,3) -0.4923122E-03                   1_GWF-(6,26,33)   86.73409    
        262        66         2                     1_GWF-(1,2,3) -0.1440134E-02                   1_GWF-(6,25,32)   85.73575    
        263        66         3                     1_GWF-(1,2,3)  0.2977030E-01                   1_GWF-(6,24,32)   1157.493    
        264        66         4                     1_GWF-(1,2,3) -0.3364141E-01                   1_GWF-(6,26,31)  -36.85156    
        265        66         5                     1_GWF-(1,2,3) -0.3770423E-04                   1_GWF-(6,26,31)  -17.15693    
        266        66         6                     1_GWF-(1,2,3)  0.3286138E-03                   1_GWF-(6,27,33)  -13.72664    
        267        66         7                     1_GWF-(1,2,3)  0.4189463E-03                    1_GWF-(6,5,33)   10.96071    
        268        67         1                     1_GWF-(1,2,3) -0.4290199E-03                    1_GWF-(7,9,27)   69.07558    
        269        67         2                     1_GWF-(1,2,3) -0.1078779E-02                    1_GWF-(6,6,28)   68.55960    
        270        67         3                     1_GWF-(1,2,3) -0.1558190E-02                    1_GWF-(6,6,28)   51.87200    
        271        67         4                     1_GWF-(1,2,3) -0.2353609E-02                    1_GWF-(6,8,30)   31.66104    
        272        67         5                     1_GWF-(1,2,3) -0.1125845E-02                    1_GWF-(7,9,27)  -21.86092    
        273        67         6                     1_GWF-(1,2,3)  0.9491845E-03                    1_GWF-(6,6,27)  -16.30028    
        274        67         7                     1_GWF-(1,2,3) -0.8628270E-04                    1_GWF-(6,5,33)   12.43587    
        275        68         1                     1_GWF-(1,2,3) -0.2217653E-03                   1_GWF-(6,26,31)   67.57678    
        276        68         2                     1_GWF-(1,2,3) -0.2857092E-03                    1_GWF-(6,6,28)   60.38061    
        277        68         3                     1_GWF-(1,2,3) -0.1044325E-02                    1_GWF-(6,6,28)   46.60369    
        278        68         4                     1_GWF-(1,2,3) -0.1963104E-02                    1_GWF-(6,6,30)   25.98858    
        279        68         5                     1_GWF-(1,2,3) -0.6969387E-03                    1_GWF-(6,6,30)   15.95484    
        280        68         6                     1_GWF-(1,2,3)  0.5383033E-03                    1_GWF-(6,6,27)  -11.87340    
        281        68         7                     1_GWF-(1,2,3)  0.1346862E-04                    1_GWF-(6,5,33)   8.408740    
        282        69         1                     1_GWF-(1,2,3) -0.2569735E-03                    1_GWF-(7,9,27)   61.59130    
        283        69         2                     1_GWF-(1,2,3) -0.7053755E-03                    1_GWF-(6,6,28)   64.35196    
        284        69         3                     1_GWF-(1,2,3) -0.1220575E-02                    1_GWF-(6,6,28)   51.14322    
        285        69         4                     1_GWF-(1,2,3) -0.2244545E-02                    1_GWF-(6,5,29)   32.09972    
        286        69         5                     1_GWF-(1,2,3) -0.9453132E-03                    1_GWF-(6,6,30)   20.57029    
        287        69         6                     1_GWF-(1,2,3)  0.6601711E-03                    1_GWF-(6,6,27)  -14.65479    
        288        69         7                     1_GWF-(1,2,3)  0.7269360E-04                    1_GWF-(6,5,33)   11.21857    
        289        70         1                     1_GWF-(1,2,3) -0.1553427E-03                    1_GWF-(7,9,27)   55.82980    
        290        70         2                     1_GWF-(1,2,3) -0.3027577E-03                    1_GWF-(6,6,28)   59.54178    
        291        70         3                     1_GWF-(1,2,3) -0.9974626E-03                    1_GWF-(6,6,28)   48.09259    
        292        70         4                     1_GWF-(1,2,3) -0.2082316E-02                    1_GWF-(6,5,29)   30.59072    
        293        70         5                     1_GWF-(1,2,3) -0.9286669E-03                    1_GWF-(6,6,30)   19.13107    
        294        70         6                     1_GWF-(1,2,3)  0.5069028E-03                    1_GWF-(6,6,27)  -13.17748    
        295        70         7                     1_GWF-(1,2,3)  0.3233678E-04                    1_GWF-(6,5,33)   9.516968    
        296        71         1                     1_GWF-(1,2,3) -0.1358689E-03                    1_GWF-(7,9,27)   51.25162    
        297        71         2                     1_GWF-(1,2,3) -0.2940529E-03                    1_GWF-(6,6,28)   54.65933    
        298        71         3                     1_GWF-(1,2,3) -0.9090737E-03                    1_GWF-(6,6,28)   44.82372    
        299        71         4                     1_GWF-(1,2,3) -0.1987910E-02                    1_GWF-(6,5,29)   29.20367    
        300        71         5                     1_GWF-(1,2,3) -0.8704877E-03                    1_GWF-(6,6,30)   18.24265    
        301        71         6                     1_GWF-(1,2,3)  0.4461204E-03                    1_GWF-(6,6,27)  -12.39354    
        302        71         7                     1_GWF-(1,2,3)  0.6149238E-04                    1_GWF-(6,5,33)   8.992430    
        303        72         1                     1_GWF-(1,2,3) -0.1052657E-03                    1_GWF-(7,9,27)   47.29863    
        304        72         2                     1_GWF-(1,2,3) -0.1832617E-03                    1_GWF-(6,6,28)   50.75071    
        305        72         3                     1_GWF-(1,2,3) -0.8088081E-03                    1_GWF-(6,6,28)   42.68316    
        306        72         4                     1_GWF-(1,2,3) -0.1850546E-02                    1_GWF-(6,5,29)   27.86611    
        307        72         5                     1_GWF-(1,2,3) -0.9068809E-03                    1_GWF-(6,6,30)   17.77431    
        308        72         6                     1_GWF-(1,2,3)  0.3244153E-03                    1_GWF-(6,6,27)  -12.21746    
        309        72         7                     1_GWF-(1,2,3)  0.9736206E-05                    1_GWF-(6,5,33)   8.462622    
        310        73         1                     1_GWF-(1,2,3) -0.8011605E-04                    1_GWF-(7,9,27)   43.14069    
        311        73         2                     1_GWF-(1,2,3) -0.1001423E-03                    1_GWF-(6,6,28)   47.25510    
        312        73         3                     1_GWF-(1,2,3) -0.7085398E-03                    1_GWF-(6,6,28)   40.54332    
        313        73         4                     1_GWF-(1,2,3) -0.1747783E-02                    1_GWF-(6,5,29)   26.83146    
        314        73         5                     1_GWF-(1,2,3) -0.8977610E-03                    1_GWF-(6,6,30)   16.88910    
        315        73         6                     1_GWF-(1,2,3)  0.2452772E-03                    1_GWF-(6,4,30)   10.05830    
        316        73         7                     1_GWF-(1,2,3)  0.2164653E-05                    1_GWF-(6,5,33)   7.714623    
        317        74         1                     1_GWF-(1,2,3) -0.6193120E-04                    1_GWF-(7,9,27)   39.27799    
        318        74         2                     1_GWF-(1,2,3) -0.4278221E-04                    1_GWF-(6,6,28)   42.69946    
        319        74         3                     1_GWF-(1,2,3) -0.6120533E-03                    1_GWF-(6,6,28)   37.91465    
        320        74         4                     1_GWF-(1,2,3) -0.1623892E-02                    1_GWF-(6,5,29)   25.01314    
        321        74         5                     1_GWF-(1,2,3) -0.8958416E-03                    1_GWF-(6,6,30)   16.10041    
        322        74         6                     1_GWF-(1,2,3)  0.1167609E-03                    1_GWF-(6,4,30)   10.18620    
        323        74         7                     1_GWF-(1,2,3) -0.2087003E-04                    1_GWF-(6,5,33)   7.079369    
        324        75         1                     1_GWF-(1,2,3) -0.3980564E-04                    1_GWF-(7,9,27)   35.70322    
        325        75         2                     1_GWF-(1,2,3)  0.4351387E-04                    1_GWF-(6,6,28)   39.63078    
        326        75         3                     1_GWF-(1,2,3) -0.5112989E-03                    1_GWF-(6,6,28)   36.30724    
        327        75         4                     1_GWF-(1,2,3) -0.1498494E-02                    1_GWF-(6,6,28)   24.83751    
        328        75         5                     1_GWF-(1,2,3) -0.8992038E-03                    1_GWF-(6,6,30)   15.49161    
        329        75         6                     1_GWF-(1,2,3)  0.3199225E-04                    1_GWF-(6,4,30)   9.992911    
        330        75         7                     1_GWF-(1,2,3) -0.5291221E-04                    1_GWF-(7,9,27)  -6.906488    
        331        76         1                     1_GWF-(1,2,3) -0.3206769E-04                    1_GWF-(7,9,27)   31.00305    
        332        76         2                     1_GWF-(1,2,3)  0.6337978E-04                    1_GWF-(6,6,28)   34.32830    
        333        76         3                     1_GWF-(1,2,3) -0.4438749E-03                    1_GWF-(6,6,28)   33.02776    
        334        76         4                     1_GWF-(1,2,3) -0.1395508E-02                    1_GWF-(6,6,28)   23.28076    
        335        76         5                     1_GWF-(1,2,3) -0.8630553E-03                    1_GWF-(6,5,29)   14.61962    
        336        76         6                     1_GWF-(1,2,3) -0.5054280E-04                    1_GWF-(6,4,30)   9.505034    
        337        76         7                     1_GWF-(1,2,3) -0.4227807E-04                    1_GWF-(7,9,27)  -6.825574    
        338        77         1                     1_GWF-(1,2,3) -0.1779899E-04                    1_GWF-(7,9,27)   28.08364    
        339        77         2                     1_GWF-(1,2,3)  0.1024298E-03                    1_GWF-(6,6,28)   31.66530    
        340        77         3                     1_GWF-(1,2,3) -0.3383120E-03                    1_GWF-(6,6,28)   32.03144    
        341        77         4                     1_GWF-(1,2,3) -0.1267280E-02                    1_GWF-(6,6,28)   23.76783    
        342        77         5                     1_GWF-(1,2,3) -0.8678993E-03                    1_GWF-(6,5,29)   14.53757    
        343        77         6                     1_GWF-(1,2,3) -0.2135884E-03                    1_GWF-(6,4,30)   9.207891    
        344        77         7                     1_GWF-(1,2,3) -0.3150696E-04                    1_GWF-(7,9,27)  -7.659255    
        345        78         1                     1_GWF-(1,2,3) -0.1893098E-04                    1_GWF-(7,9,27)   23.86668    
        346        78         2                     1_GWF-(1,2,3)  0.8344549E-04                    1_GWF-(6,6,28)   25.16249    
        347        78         3                     1_GWF-(1,2,3) -0.2686320E-03                    1_GWF-(6,6,28)   25.68466    
        348        78         4                     1_GWF-(1,2,3) -0.1071325E-02                    1_GWF-(6,6,28)   17.91050    
        349        78         5                     1_GWF-(1,2,3) -0.6834482E-03                    1_GWF-(6,5,29)   10.92726    
        350        78         6                     1_GWF-(1,2,3) -0.1367409E-03                    1_GWF-(6,6,30)   7.106811    
        351        78         7                     1_GWF-(1,2,3)  0.4373054E-04                    1_GWF-(7,9,27)  -5.770464    
1
                            STRESS PERIOD NO.    2, LENGTH =   3287.000    
                            -----------------------------------------------

                              NUMBER OF TIME STEPS =    10

                               MULTIPLIER FOR DELT =     1.500

                            INITIAL TIME STEP SIZE =   29.00377    


 OUTER ITERATION SUMMARY
 ---------------------------------------------------------------------------------------
                       OUTER     INNER         MAXIMUM                    MAXIMUM CHANGE
                   ITERATION ITERATION          CHANGE                    MODEL-(CELLID)
 ---------------------------------------------------------------------------------------
 Linear Solver             1        11   -0.663445                        1_GWF-(3,28,9)
 Under-relaxation          1             -0.663445                        1_GWF-(3,28,9)
 Linear Solver             2         2   -0.186107                       1_GWF-(4,16,14)
 Under-relaxation          2             -0.186107                       1_GWF-(4,16,14)
 Linear Solver             3         3   -0.129680                        1_GWF-(1,12,6)
 Under-relaxation          3             -0.129680                        1_GWF-(1,12,6)
 Linear Solver             4         2   -2.360333E-02                    1_GWF-(1,12,6)

 4 CALLS TO NUMERICAL SOLUTION IN TIME STEP 1 STRESS PERIOD 2
 18 TOTAL ITERATIONS

 INNER ITERATION SUMMARY
 --------------------------------------------------------------------------------------------------------------------------------
     TOTAL      OUTER     INNER                    MAXIMUM CHANGE        MAXIMUM                  MAXIMUM RESIDUAL        MAXIMUM
 ITERATION  ITERATION ITERATION                    MODEL-(CELLID)         CHANGE                    MODEL-(CELLID)       RESIDUAL
 --------------------------------------------------------------------------------------------------------------------------------
          1         1         1                     1_GWF-(1,2,3) -0.3901183E-01                  1_GWF-(11,18,10)   662.8265    
          2         1         2                     1_GWF-(1,2,3) -0.1117008E-01                   1_GWF-(11,18,8)   140.3468    
          3         1         3                     1_GWF-(1,2,3) -0.5517747E-02                   1_GWF-(11,21,7)   33.09143    
          4         1         4                     1_GWF-(1,2,3) -0.2288797E-03                   1_GWF-(11,5,33)   21.86239    
          5         1         5                     1_GWF-(1,2,3)  0.1811000E-03                   1_GWF-(11,5,33)   24.04544    
          6         1         6                     1_GWF-(1,2,3) -0.3591768E-04                   1_GWF-(11,3,33)   16.66523    
          7         1         7                     1_GWF-(1,2,3) -0.6411555E-05                   1_GWF-(11,5,33)   15.98857    
          8         1         8                     1_GWF-(1,2,3) -0.2755320E-05                   1_GWF-(11,3,33)   9.328031    
          9         1         9                     1_GWF-(1,2,3)  0.1150660E-05                   1_GWF-(11,3,33)   4.865631    
         10         1        10                     1_GWF-(1,2,3)  0.6710573E-06                   1_GWF-(11,3,33)   1.741424    
         11         1        11                     1_GWF-(1,2,3)  0.6099150E-06                   1_GWF-(11,3,33)   1.068717    
         12         2         1                     1_GWF-(1,2,3) -0.6352730E-04                    1_GWF-(10,9,4)   58.70177    
         13         2         2                     1_GWF-(1,2,3)  0.2590617E-04                    1_GWF-(10,8,5)   7.122349    
         14         3         1                     1_GWF-(1,2,3) -0.9548568E-04                   1_GWF-(12,12,6)   101.9939    
         15         3         2                     1_GWF-(1,2,3) -0.1023521E-03                   1_GWF-(12,13,5)   11.67266    
         16         3         3                     1_GWF-(1,2,3) -0.6676215E-04                   1_GWF-(12,16,5)   1.611685    
         17         4         1                     1_GWF-(1,2,3) -0.1597913E-04                   1_GWF-(12,11,5)   21.36004    
         18         4         2                     1_GWF-(1,2,3) -0.8828973E-05                   1_GWF-(12,12,6)   2.943389    


 OUTER ITERATION SUMMARY
 ---------------------------------------------------------------------------------------
                       OUTER     INNER         MAXIMUM                    MAXIMUM CHANGE
                   ITERATION ITERATION          CHANGE                    MODEL-(CELLID)
 ---------------------------------------------------------------------------------------
 Linear Solver             1         4   -0.649974                        1_GWF-(1,28,9)
 Under-relaxation          1             -0.649974                        1_GWF-(1,28,9)
 Linear Solver             2         4   -0.235358                        1_GWF-(1,10,5)
 Under-relaxation          2             -0.235358                        1_GWF-(1,10,5)
 Linear Solver             3         3   -7.041839E-02                   1_GWF-(4,19,14)

 3 CALLS TO NUMERICAL SOLUTION IN TIME STEP 2 STRESS PERIOD 2
 11 TOTAL ITERATIONS

 INNER ITERATION SUMMARY
 --------------------------------------------------------------------------------------------------------------------------------
     TOTAL      OUTER     INNER                    MAXIMUM CHANGE        MAXIMUM                  MAXIMUM RESIDUAL        MAXIMUM
 ITERATION  ITERATION ITERATION                    MODEL-(CELLID)         CHANGE                    MODEL-(CELLID)       RESIDUAL
 --------------------------------------------------------------------------------------------------------------------------------
          1         1         1                     1_GWF-(1,2,3) -0.9114837E-01                  1_GWF-(11,18,10)   598.7100    
          2         1         2                     1_GWF-(1,2,3) -0.2534227E-01                   1_GWF-(12,13,7)   147.2416    
          3         1         3                     1_GWF-(1,2,3) -0.2861779E-02                   1_GWF-(11,21,7)   40.05155    
          4         1         4                     1_GWF-(1,2,3)  0.3457826E-03                   1_GWF-(11,21,7)   10.97604    
          5         2         1                     1_GWF-(1,2,3)  0.4175210E-03                    1_GWF-(10,9,4)   270.5714    
          6         2         2                     1_GWF-(1,2,3)  0.2107806E-03                    1_GWF-(10,9,4)   66.41753    
          7         2         3                     1_GWF-(1,2,3)  0.6856772E-04                    1_GWF-(10,9,4)   13.47210    
          8         2         4                     1_GWF-(1,2,3) -0.5622622E-03                   1_GWF-(11,5,33)   6.075390    
          9         3         1                     1_GWF-(1,2,3) -0.1048485E-03                    1_GWF-(10,8,4)   50.78999    
         10         3         2                     1_GWF-(1,2,3) -0.7039657E-04                    1_GWF-(10,8,4)   14.02404    
         11         3         3                     1_GWF-(1,2,3) -0.5344946E-04                   1_GWF-(11,5,33)   4.308403    


 OUTER ITERATION SUMMARY
 ---------------------------------------------------------------------------------------
                       OUTER     INNER         MAXIMUM                    MAXIMUM CHANGE
                   ITERATION ITERATION          CHANGE                    MODEL-(CELLID)
 ---------------------------------------------------------------------------------------
 Linear Solver             1         6   -0.725835                        1_GWF-(1,28,8)
 Under-relaxation          1             -0.725835                        1_GWF-(1,28,8)
 Linear Solver             2         4   -0.250573                        1_GWF-(1,18,3)
 Under-relaxation          2             -0.250573                        1_GWF-(1,18,3)
 Linear Solver             3         2   -1.774150E-02                   1_GWF-(1,27,12)

 3 CALLS TO NUMERICAL SOLUTION IN TIME STEP 3 STRESS PERIOD 2
 12 TOTAL ITERATIONS

 INNER ITERATION SUMMARY
 --------------------------------------------------------------------------------------------------------------------------------
     TOTAL      OUTER     INNER                    MAXIMUM CHANGE        MAXIMUM                  MAXIMUM RESIDUAL        MAXIMUM
 ITERATION  ITERATION ITERATION                    MODEL-(CELLID)         CHANGE                    MODEL-(CELLID)       RESIDUAL
 --------------------------------------------------------------------------------------------------------------------------------
          1         1         1                     1_GWF-(1,2,3) -0.1267609                      1_GWF-(11,18,10)   590.9824    
          2         1         2                     1_GWF-(1,2,3) -0.6527467E-01                  1_GWF-(11,25,13)  -221.5336    
          3         1         3                     1_GWF-(1,2,3) -0.8435597E-02                   1_GWF-(11,20,8)   47.58475    
          4         1         4                     1_GWF-(1,2,3) -0.2962968E-04                   1_GWF-(11,21,7)   19.53622    
          5         1         5                     1_GWF-(1,2,3) -0.2471559E-03                   1_GWF-(11,7,33)   14.87066    
          6         1         6                     1_GWF-(1,2,3) -0.9433528E-03                   1_GWF-(11,6,33)   12.66549    
          7         2         1                     1_GWF-(1,2,3)  0.5504403E-04                   1_GWF-(11,19,4)   145.2977    
          8         2         2                     1_GWF-(1,2,3)  0.7687482E-04                   1_GWF-(12,20,3)   47.90993    
          9         2         3                     1_GWF-(1,2,3) -0.1341860E-02                   1_GWF-(11,22,5)   16.62381    
         10         2         4                     1_GWF-(1,2,3) -0.4928631E-03                   1_GWF-(11,4,33)   7.436144    
         11         3         1                     1_GWF-(1,2,3) -0.2452065E-03                  1_GWF-(11,26,11)   8.131673    
         12         3         2                     1_GWF-(1,2,3) -0.3009253E-03                   1_GWF-(11,4,33)   5.843610    


 OUTER ITERATION SUMMARY
 ---------------------------------------------------------------------------------------
                       OUTER     INNER         MAXIMUM                    MAXIMUM CHANGE
                   ITERATION ITERATION          CHANGE                    MODEL-(CELLID)
 ---------------------------------------------------------------------------------------
 Linear Solver             1        11   -0.948010                        1_GWF-(1,28,8)
 Under-relaxation          1             -0.948010                        1_GWF-(1,28,8)
 Linear Solver             2         4   -0.115659                       1_GWF-(1,28,12)
 Under-relaxation          2             -0.115659                       1_GWF-(1,28,12)
 Linear Solver             3         1   -6.347148E-03                   1_GWF-(11,3,34)

 3 CALLS TO NUMERICAL SOLUTION IN TIME STEP 4 STRESS PERIOD 2
 16 TOTAL ITERATIONS

 INNER ITERATION SUMMARY
 --------------------------------------------------------------------------------------------------------------------------------
     TOTAL      OUTER     INNER                    MAXIMUM CHANGE        MAXIMUM                  MAXIMUM RESIDUAL        MAXIMUM
 ITERATION  ITERATION ITERATION                    MODEL-(CELLID)         CHANGE                    MODEL-(CELLID)       RESIDUAL
 --------------------------------------------------------------------------------------------------------------------------------
          1         1         1                     1_GWF-(1,2,3) -0.1587731                      1_GWF-(11,18,10)   721.7008    
          2         1         2                     1_GWF-(1,2,3) -0.1436114                       1_GWF-(12,15,8)  -407.7922    
          3         1         3                     1_GWF-(1,2,3) -0.2801853E-01                  1_GWF-(11,27,13)  -83.26489    
          4         1         4                     1_GWF-(1,2,3) -0.9771965E-02                    1_GWF-(10,5,6)  -203.8856    
          5         1         5                     1_GWF-(1,2,3)  0.1861462E-01                     1_GWF-(9,3,5)  -148.4902    
          6         1         6                     1_GWF-(1,2,3) -0.1664630E-01                   1_GWF-(11,7,33)   16.63016    
          7         1         7                     1_GWF-(1,2,3) -0.1282856E-02                   1_GWF-(11,5,33)   15.05294    
          8         1         8                     1_GWF-(1,2,3) -0.7851907E-03                   1_GWF-(11,4,33)   12.33544    
          9         1         9                     1_GWF-(1,2,3)  0.3116355E-03                   1_GWF-(11,4,33)   10.17613    
         10         1        10                     1_GWF-(1,2,3)  0.3926953E-03                   1_GWF-(11,3,33)   7.987496    
[...]
     TOTAL      OUTER     INNER                    MAXIMUM CHANGE        MAXIMUM                  MAXIMUM RESIDUAL        MAXIMUM
 ITERATION  ITERATION ITERATION                    MODEL-(CELLID)         CHANGE                    MODEL-(CELLID)       RESIDUAL
 --------------------------------------------------------------------------------------------------------------------------------
          1         1         1                     1_GWF-(3,2,3) -0.4364114E-01                   1_GWF-(12,18,5)   101.6162    
          2         1         2                     1_GWF-(3,2,3)  0.9717560E-03                  1_GWF-(11,11,33)   22.44707    
          3         1         3                     1_GWF-(3,2,3) -0.2585683E-03                   1_GWF-(11,9,33)   14.03711    


 OUTER ITERATION SUMMARY
 ---------------------------------------------------------------------------------------
                       OUTER     INNER         MAXIMUM                    MAXIMUM CHANGE
                   ITERATION ITERATION          CHANGE                    MODEL-(CELLID)
 ---------------------------------------------------------------------------------------
 Linear Solver             1        10   -0.111333                       1_GWF-(11,6,34)
 Under-relaxation          1             -0.111333                       1_GWF-(11,6,34)
 Linear Solver             2         1   -1.349886E-03                   1_GWF-(11,2,34)

 2 CALLS TO NUMERICAL SOLUTION IN TIME STEP 3 STRESS PERIOD 18
 11 TOTAL ITERATIONS

 INNER ITERATION SUMMARY
 --------------------------------------------------------------------------------------------------------------------------------
     TOTAL      OUTER     INNER                    MAXIMUM CHANGE        MAXIMUM                  MAXIMUM RESIDUAL        MAXIMUM
 ITERATION  ITERATION ITERATION                    MODEL-(CELLID)         CHANGE                    MODEL-(CELLID)       RESIDUAL
 --------------------------------------------------------------------------------------------------------------------------------
          1         1         1                     1_GWF-(3,2,3) -0.6624091E-01                    1_GWF-(6,3,33)  -116.1780    
          2         1         2                     1_GWF-(3,2,3) -0.1234365E-02                  1_GWF-(11,11,33)   42.85438    
          3         1         3                     1_GWF-(3,2,3) -0.8180795E-03                   1_GWF-(11,9,33)   27.87525    
          4         1         4                     1_GWF-(3,2,3)  0.1358043E-03                   1_GWF-(11,9,33)   21.80440    
          5         1         5                     1_GWF-(3,2,3)  0.2899762E-04                   1_GWF-(11,7,33)   16.47521    
          6         1         6                     1_GWF-(3,2,3)  0.1920162E-04                   1_GWF-(11,7,33)   15.32375    
          7         1         7                     1_GWF-(3,2,3)  0.4945753E-06                   1_GWF-(11,5,33)   9.329928    
          8         1         8                     1_GWF-(3,2,3) -0.3837569E-05                   1_GWF-(11,3,33)   6.365461    
          9         1         9                     1_GWF-(3,2,3) -0.1684530E-05                   1_GWF-(11,3,33)   3.234270    
         10         1        10                     1_GWF-(3,2,3) -0.2866642E-06                   1_GWF-(11,2,32)   2.585314    
         11         2         1                     1_GWF-(3,2,3)  0.1521307E-05                   1_GWF-(11,3,33)   1.466157    


 OUTER ITERATION SUMMARY
 ---------------------------------------------------------------------------------------
                       OUTER     INNER         MAXIMUM                    MAXIMUM CHANGE
                   ITERATION ITERATION          CHANGE                    MODEL-(CELLID)
 ---------------------------------------------------------------------------------------
 Linear Solver             1         6   -0.124580                        1_GWF-(4,3,21)
 Under-relaxation          1             -0.124580                        1_GWF-(4,3,21)
 Linear Solver             2         3   -6.900507E-02                   1_GWF-(11,5,34)

 2 CALLS TO NUMERICAL SOLUTION IN TIME STEP 4 STRESS PERIOD 18
 9 TOTAL ITERATIONS

 INNER ITERATION SUMMARY
 --------------------------------------------------------------------------------------------------------------------------------
     TOTAL      OUTER     INNER                    MAXIMUM CHANGE        MAXIMUM                  MAXIMUM RESIDUAL        MAXIMUM
 ITERATION  ITERATION ITERATION                    MODEL-(CELLID)         CHANGE                    MODEL-(CELLID)       RESIDUAL
 --------------------------------------------------------------------------------------------------------------------------------
          1         1         1                     1_GWF-(3,2,3) -0.9122456E-01                    1_GWF-(6,2,33)  -174.1132    
          2         1         2                     1_GWF-(3,2,3) -0.9249099E-02                   1_GWF-(6,11,26)   91.19694    
          3         1         3                     1_GWF-(3,2,3) -0.3525170E-02                   1_GWF-(11,9,33)   34.89560    
          4         1         4                     1_GWF-(3,2,3)  0.6450153E-03                   1_GWF-(11,9,33)   24.22633    
          5         1         5                     1_GWF-(3,2,3)  0.3270596E-03                   1_GWF-(11,7,33)   18.24555    
          6         1         6                     1_GWF-(3,2,3)  0.9735174E-04                   1_GWF-(11,7,33)   15.83353    
          7         2         1                     1_GWF-(3,2,3)  0.1321892E-03                   1_GWF-(11,3,33)   7.779489    
          8         2         2                     1_GWF-(3,2,3) -0.9435830E-04                    1_GWF-(5,3,30)   3.404690    
          9         2         3                     1_GWF-(3,2,3)  0.3973006E-06                   1_GWF-(11,2,32)   2.526949    


 OUTER ITERATION SUMMARY
 ---------------------------------------------------------------------------------------
                       OUTER     INNER         MAXIMUM                    MAXIMUM CHANGE
                   ITERATION ITERATION          CHANGE                    MODEL-(CELLID)
 ---------------------------------------------------------------------------------------
 Linear Solver             1         6   -0.177468                        1_GWF-(4,3,21)
 Under-relaxation          1             -0.177468                        1_GWF-(4,3,21)
 Linear Solver             2         5   -0.116093                       1_GWF-(11,5,34)
 Under-relaxation          2             -0.116093                       1_GWF-(11,5,34)
 Linear Solver             3         1   -1.643519E-03                   1_GWF-(11,2,34)

 3 CALLS TO NUMERICAL SOLUTION IN TIME STEP 5 STRESS PERIOD 18
 12 TOTAL ITERATIONS

 INNER ITERATION SUMMARY
 --------------------------------------------------------------------------------------------------------------------------------
     TOTAL      OUTER     INNER                    MAXIMUM CHANGE        MAXIMUM                  MAXIMUM RESIDUAL        MAXIMUM
 ITERATION  ITERATION ITERATION                    MODEL-(CELLID)         CHANGE                    MODEL-(CELLID)       RESIDUAL
 --------------------------------------------------------------------------------------------------------------------------------
          1         1         1                     1_GWF-(3,2,3) -0.1149411                        1_GWF-(6,2,33)  -226.7700    
          2         1         2                     1_GWF-(3,2,3) -0.2904400E-01                   1_GWF-(6,11,26)   160.3257    
          3         1         3                     1_GWF-(3,2,3) -0.1026183E-01                   1_GWF-(6,11,26)  -62.37140    
          4         1         4                     1_GWF-(3,2,3)  0.1425311E-02                   1_GWF-(11,9,33)   29.36769    
          5         1         5                     1_GWF-(3,2,3)  0.1481042E-02                   1_GWF-(11,7,33)   24.85280    
          6         1         6                     1_GWF-(3,2,3) -0.1175409E-03                   1_GWF-(11,6,33)   23.95728    
          7         2         1                     1_GWF-(3,2,3)  0.1807571E-02                   1_GWF-(11,4,33)   14.16691    
          8         2         2                     1_GWF-(3,2,3)  0.2209645E-03                   1_GWF-(11,2,33)   9.377688    
          9         2         3                     1_GWF-(3,2,3) -0.6143298E-03                   1_GWF-(11,2,33)   7.525289    
         10         2         4                     1_GWF-(3,2,3) -0.5003171E-03                   1_GWF-(11,2,33)   3.940490    
         11         2         5                     1_GWF-(3,2,3) -0.6720267E-04                   1_GWF-(11,2,33)   2.556638    
         12         3         1                     1_GWF-(3,2,3)  0.1660360E-03                   1_GWF-(11,2,33)   2.138581    
1
                            STRESS PERIOD NO.   19, LENGTH =   183.0000    
                            -----------------------------------------------

                              NUMBER OF TIME STEPS =     5

                               MULTIPLIER FOR DELT =     1.500

                            INITIAL TIME STEP SIZE =   13.87678    


 OUTER ITERATION SUMMARY
 ---------------------------------------------------------------------------------------
                       OUTER     INNER         MAXIMUM                    MAXIMUM CHANGE
                   ITERATION ITERATION          CHANGE                    MODEL-(CELLID)
 ---------------------------------------------------------------------------------------
 Linear Solver             1         3   -7.533796E-02                    1_GWF-(1,22,9)

 1 CALLS TO NUMERICAL SOLUTION IN TIME STEP 1 STRESS PERIOD 19
 3 TOTAL ITERATIONS

 INNER ITERATION SUMMARY
 --------------------------------------------------------------------------------------------------------------------------------
     TOTAL      OUTER     INNER                    MAXIMUM CHANGE        MAXIMUM                  MAXIMUM RESIDUAL        MAXIMUM
 ITERATION  ITERATION ITERATION                    MODEL-(CELLID)         CHANGE                    MODEL-(CELLID)       RESIDUAL
 --------------------------------------------------------------------------------------------------------------------------------
          1         1         1                     1_GWF-(1,2,3) -0.3973969E-01                   1_GWF-(11,22,8)  -68.39576    
          2         1         2                     1_GWF-(1,2,3)  0.1112388E-02                   1_GWF-(11,3,33)  -17.16700    
          3         1         3                     1_GWF-(1,2,3) -0.2197261E-03                   1_GWF-(11,9,33)   8.323671    


 OUTER ITERATION SUMMARY
 ---------------------------------------------------------------------------------------
                       OUTER     INNER         MAXIMUM                    MAXIMUM CHANGE
                   ITERATION ITERATION          CHANGE                    MODEL-(CELLID)
 ---------------------------------------------------------------------------------------
 Linear Solver             1         4   -7.180275E-02                    1_GWF-(1,22,9)

 1 CALLS TO NUMERICAL SOLUTION IN TIME STEP 2 STRESS PERIOD 19
 4 TOTAL ITERATIONS

 INNER ITERATION SUMMARY
 --------------------------------------------------------------------------------------------------------------------------------
     TOTAL      OUTER     INNER                    MAXIMUM CHANGE        MAXIMUM                  MAXIMUM RESIDUAL        MAXIMUM
 ITERATION  ITERATION ITERATION                    MODEL-(CELLID)         CHANGE                    MODEL-(CELLID)       RESIDUAL
 --------------------------------------------------------------------------------------------------------------------------------
          1         1         1                     1_GWF-(3,2,3) -0.5645954E-01                    1_GWF-(6,3,33)  -85.53855    
          2         1         2                     1_GWF-(3,2,3)  0.1175032E-02                  1_GWF-(11,11,33)   31.41616    
          3         1         3                     1_GWF-(3,2,3) -0.6602584E-03                   1_GWF-(11,9,33)   17.46825    
          4         1         4                     1_GWF-(3,2,3)  0.4790109E-04                   1_GWF-(11,9,33)   14.28363    


 OUTER ITERATION SUMMARY
 ---------------------------------------------------------------------------------------
                       OUTER     INNER         MAXIMUM                    MAXIMUM CHANGE
                   ITERATION ITERATION          CHANGE                    MODEL-(CELLID)
 ---------------------------------------------------------------------------------------
 Linear Solver             1         6   -9.144755E-02                     1_GWF-(3,7,3)

 1 CALLS TO NUMERICAL SOLUTION IN TIME STEP 3 STRESS PERIOD 19
 6 TOTAL ITERATIONS

 INNER ITERATION SUMMARY
 --------------------------------------------------------------------------------------------------------------------------------
     TOTAL      OUTER     INNER                    MAXIMUM CHANGE        MAXIMUM                  MAXIMUM RESIDUAL        MAXIMUM
 ITERATION  ITERATION ITERATION                    MODEL-(CELLID)         CHANGE                    MODEL-(CELLID)       RESIDUAL
 --------------------------------------------------------------------------------------------------------------------------------
          1         1         1                     1_GWF-(3,2,3) -0.7762891E-01                    1_GWF-(6,3,33)  -127.8727    
          2         1         2                     1_GWF-(3,2,3) -0.1178860E-02                  1_GWF-(11,11,33)   49.94087    
          3         1         3                     1_GWF-(3,2,3) -0.2000735E-02                   1_GWF-(11,9,33)   28.96385    
          4         1         4                     1_GWF-(3,2,3)  0.3016781E-03                   1_GWF-(11,7,33)   18.92844    
          5         1         5                     1_GWF-(3,2,3)  0.3748228E-04                   1_GWF-(11,5,33)   13.42449    
          6         1         6                     1_GWF-(3,2,3)  0.3213452E-04                   1_GWF-(11,7,33)   15.43271    


 OUTER ITERATION SUMMARY
 ---------------------------------------------------------------------------------------
                       OUTER     INNER         MAXIMUM                    MAXIMUM CHANGE
                   ITERATION ITERATION          CHANGE                    MODEL-(CELLID)
 ---------------------------------------------------------------------------------------
 Linear Solver             1         6   -0.127541                         1_GWF-(3,7,3)
 Under-relaxation          1             -0.127541                         1_GWF-(3,7,3)
 Linear Solver             2         3   -9.930708E-02                   1_GWF-(11,5,34)

 2 CALLS TO NUMERICAL SOLUTION IN TIME STEP 4 STRESS PERIOD 19
 9 TOTAL ITERATIONS

 INNER ITERATION SUMMARY
 --------------------------------------------------------------------------------------------------------------------------------
     TOTAL      OUTER     INNER                    MAXIMUM CHANGE        MAXIMUM                  MAXIMUM RESIDUAL        MAXIMUM
 ITERATION  ITERATION ITERATION                    MODEL-(CELLID)         CHANGE                    MODEL-(CELLID)       RESIDUAL
 --------------------------------------------------------------------------------------------------------------------------------
          1         1         1                     1_GWF-(3,2,3) -0.1025496                        1_GWF-(6,2,33)  -182.9963    
          2         1         2                     1_GWF-(3,2,3) -0.9870233E-02                   1_GWF-(6,11,26)   77.48123    
          3         1         3                     1_GWF-(3,2,3) -0.5451947E-02                   1_GWF-(11,9,33)   43.79944    
          4         1         4                     1_GWF-(3,2,3)  0.9020334E-03                   1_GWF-(11,7,33)   27.53414    
          5         1         5                     1_GWF-(3,2,3)  0.5113155E-03                   1_GWF-(11,5,33)   20.86662    
          6         1         6                     1_GWF-(3,2,3) -0.1249268E-04                   1_GWF-(11,6,33)   23.51956    
          7         2         1                     1_GWF-(3,2,3)  0.4426517E-03                   1_GWF-(11,2,33)   12.35901    
          8         2         2                     1_GWF-(3,2,3) -0.8605140E-04                  1_GWF-(11,10,33)  -5.779630    
          9         2         3                     1_GWF-(3,2,3) -0.2142169E-03                   1_GWF-(11,2,33)   3.943267    


 OUTER ITERATION SUMMARY
 ---------------------------------------------------------------------------------------
                       OUTER     INNER         MAXIMUM                    MAXIMUM CHANGE
                   ITERATION ITERATION          CHANGE                    MODEL-(CELLID)
 ---------------------------------------------------------------------------------------
 Linear Solver             1         6   -0.180089                         1_GWF-(3,7,3)
 Under-relaxation          1             -0.180089                         1_GWF-(3,7,3)
 Linear Solver             2         4   -0.108686                       1_GWF-(11,5,34)
 Under-relaxation          2             -0.108686                       1_GWF-(11,5,34)
 Linear Solver             3         1   -3.722854E-03                   1_GWF-(11,2,34)

 3 CALLS TO NUMERICAL SOLUTION IN TIME STEP 5 STRESS PERIOD 19
 11 TOTAL ITERATIONS

 INNER ITERATION SUMMARY
 --------------------------------------------------------------------------------------------------------------------------------
     TOTAL      OUTER     INNER                    MAXIMUM CHANGE        MAXIMUM                  MAXIMUM RESIDUAL        MAXIMUM
 ITERATION  ITERATION ITERATION                    MODEL-(CELLID)         CHANGE                    MODEL-(CELLID)       RESIDUAL
 --------------------------------------------------------------------------------------------------------------------------------
          1         1         1                     1_GWF-(3,2,3) -0.1300571                        1_GWF-(6,2,33)  -249.0190    
          2         1         2                     1_GWF-(3,2,3) -0.2975124E-01                    1_GWF-(6,7,28)   126.8134    
          3         1         3                     1_GWF-(3,2,3) -0.1408039E-01                   1_GWF-(11,9,33)   53.57187    
          4         1         4                     1_GWF-(3,2,3)  0.1807165E-02                   1_GWF-(11,9,33)   32.11624    
          5         1         5                     1_GWF-(3,2,3)  0.1491907E-02                   1_GWF-(11,7,33)   25.19047    
          6         1         6                     1_GWF-(3,2,3)  0.2965846E-04                   1_GWF-(11,6,33)   23.04563    
          7         2         1                     1_GWF-(3,2,3)  0.1730918E-02                   1_GWF-(11,4,33)   11.86163    
          8         2         2                     1_GWF-(3,2,3) -0.3241852E-03                   1_GWF-(11,2,33)   7.699405    
          9         2         3                     1_GWF-(3,2,3) -0.5286951E-03                   1_GWF-(11,2,33)   5.823588    
         10         2         4                     1_GWF-(3,2,3) -0.1821737E-03                   1_GWF-(11,2,33)   3.160424    
         11         3         1                     1_GWF-(3,2,3)  0.2851239E-03                   1_GWF-(11,2,33)   2.017306    

 INFORMATION ON VARIABLES STORED IN THE MEMORY MANAGER

 Number of allocated integer variables:   882542
 Number of allocated real variables:    729810
 Allocated memory in megabytes:     9.36865    


 Run end date and time (yyyy/mm/dd hh:mm:ss): 2019/10/10 15:51:05
 Elapsed run time:  1.949 Seconds

 Normal termination of simulation.
