                                   MODFLOW 6
                U.S. GEOLOGICAL SURVEY MODULAR HYDROLOGIC MODEL
                            VERSION 6.1.0 12/12/2019

   MODFLOW 6 compiled Dec 13 2019 12:29:49 with IFORT compiler (ver. 19.0.5)

This software has been approved for release by the U.S. Geological 
Survey (USGS). Although the software has been subjected to rigorous 
review, the USGS reserves the right to update the software as needed 
pursuant to further analysis and review. No warranty, expressed or 
implied, is made by the USGS or the U.S. Government as to the 
functionality of the software and related material nor shall the 
fact of release constitute any such warranty. Furthermore, the 
software is released on condition that neither the USGS nor the U.S. 
Government shall be held liable for any damages resulting from its 
authorized or unauthorized use. Also refer to the USGS Water 
Resources Software User Rights Notice for complete use, copyright, 
and distribution information.


System command used to initiate simulation:
/Users/aleaf/Documents/GitHub/modflow-setup/bin/mac/mf6

MODFLOW was compiled using uniform precision.
Real Variables
  PRECISION: 15
  KIND: 8
  TINY (smallest non-zero value):    2.225074-308
  HUGE (largest value):    1.797693+308
Integer Variables
  KIND: 4
  HUGE (largest value): 2147483647
  BIT_SIZE: 32
 

 OPENED mfsim.nam
 FILE TYPE:NAM   UNIT 1001   STATUS:OLD                 
 FORMAT:FORMATTED              ACCESS:SEQUENTIAL          
 ACTION:READ                


 READING SIMULATION OPTIONS
 END OF SIMULATION OPTIONS

 READING SIMULATION TIMING

 OPENED mfsim.tdis
 FILE TYPE:TDIS   UNIT 1002   STATUS:OLD                 
 FORMAT:FORMATTED              ACCESS:SEQUENTIAL          
 ACTION:READ                


 TDIS -- TEMPORAL DISCRETIZATION PACKAGE,
 VERSION 1 : 11/13/2014 - INPUT READ FROM UNIT 1002
 PROCESSING TDIS OPTIONS
    SIMULATION TIME UNIT IS DAYS
    SIMULATION STARTING DATE AND TIME IS 1998-04-01                    
 END OF TDIS OPTIONS
 PROCESSING TDIS DIMENSIONS
   19 STRESS PERIOD(S) IN SIMULATION
 END OF TDIS DIMENSIONS
 PROCESSING TDIS PERIODDATA


 STRESS PERIOD     LENGTH       TIME STEPS     MULTIPLIER FOR DELT
 ----------------------------------------------------------------------------
        1         1.000000          1                    1.000
        2         3287.000         10                    1.500
        3         183.0000          5                    1.500
        4         183.0000          5                    1.500
        5         183.0000          5                    1.500
        6         182.0000          5                    1.500
        7         183.0000          5                    1.500
        8         182.0000          5                    1.500
        9         183.0000          5                    1.500
       10         182.0000          5                    1.500
       11         183.0000          5                    1.500
       12         183.0000          5                    1.500
       13         183.0000          5                    1.500
       14         182.0000          5                    1.500
       15         183.0000          5                    1.500
       16         182.0000          5                    1.500
       17         183.0000          5                    1.500
       18         182.0000          5                    1.500
       19         183.0000          5                    1.500
 END OF TDIS PERIODDATA
 END OF SIMULATION TIMING

 READING SIMULATION MODELS
    GWF6 model SHELLMOUND will be created as model 1
 END OF SIMULATION MODELS

 READING SIMULATION EXCHANGES
 END OF SIMULATION EXCHANGES

 READING SOLUTIONGROUP

 Creating solution: SLN_1           

 OPENED mfsim.ims
 FILE TYPE:IMS   UNIT 1014   STATUS:OLD                 
 FORMAT:FORMATTED              ACCESS:SEQUENTIAL          
 ACTION:READ                

 END OF SIMULATION SOLUTIONGROUP

 IMS -- ITERATIVE MODEL SOLUTION PACKAGE, VERSION 6, 4/28/2017
         INPUT READ FROM UNIT 1014

 PROCESSING IMS OPTIONS
 MODERATE OPTION:
 DEFAULT SOLVER INPUT VALUES REFLECT MODERETELY NONLINEAR MODEL
 END OF IMS OPTIONS

 PROCESSING IMS NONLINEAR
 END OF IMS NONLINEAR DATA
 **UNDER-RELAXATION WILL BE USED***
 
 ***IMS LINEAR SOLVER WILL BE USED***

 IMSLINEAR -- UNSTRUCTURED LINEAR SOLUTION PACKAGE, VERSION 8, 04/28/2017

 PROCESSING LINEAR DATA
 END OF LINEAR DATA
 
 OUTER ITERATION CONVERGENCE CRITERION     (HCLOSE) =    0.100000E+00
 OUTER ITERATION BOUNDARY FLOW RESIDUAL (RCLOSEBND) =    0.100000E+05
 MAXIMUM NUMBER OF OUTER ITERATIONS        (MXITER) =       200
 SOLVER PRINTOUT INDEX                     (IPRIMS) =         2
 NONLINEAR ITERATION METHOD            (NONLINMETH) =         3
 LINEAR SOLUTION METHOD                   (LINMETH) =         1
 UNDER-RELAXATION WEIGHT REDUCTION FACTOR   (THETA) =    0.700000E+00
 UNDER-RELAXATION WEIGHT INCREASE INCREMENT (KAPPA) =    0.100000E+00
 UNDER-RELAXATION PREVIOUS HISTORY FACTOR   (GAMMA) =    0.000000E+00
 UNDER-RELAXATIONMOMENTUM TERM          (AMOMENTUM) =    0.000000E+00
    MAXIMUM NUMBER OF BACKTRACKS         (NUMTRACK) =         0

       SOLUTION BY THE BICONJUGATE-GRADIENT STABILIZED METHOD
 ------------------------------------------------------------------
 MAXIMUM OF    200 CALLS OF SOLUTION ROUTINE
 MAXIMUM OF    100 INTERNAL ITERATIONS PER CALL TO SOLUTION ROUTINE
 LINEAR ACCELERATION METHOD            = BCGS      
 MATRIX PRECONDITIONING TYPE           = INCOMPLETE LUT      
 MATRIX SCALING APPROACH               = NO SCALING          
 MATRIX REORDERING APPROACH            = ORIGINAL ORDERING        
 NUMBER OF ORTHOGONALIZATIONS          =        0
 HEAD CHANGE CRITERION FOR CLOSURE     =    0.10000E-01
 RESIDUAL CHANGE CRITERION FOR CLOSURE =    0.10000E-03
 RESIDUAL CONVERGENCE OPTION           =        3
 RESIDUAL CONVERGENCE NORM             = RELATIVE L2NORM 
 RELAXATION FACTOR                     =    0.00000E+00
 NUMBER OF LEVELS                      =              7
 DROP TOLERANCE                        =    0.10000E-02


1
                            STRESS PERIOD NO.    1, LENGTH =   1.000000    
                            -----------------------------------------------

                              NUMBER OF TIME STEPS =     1

                               MULTIPLIER FOR DELT =     1.000

                            INITIAL TIME STEP SIZE =   1.000000    


 OUTER ITERATION SUMMARY
 ---------------------------------------------------------------------------------------
                       OUTER     INNER         MAXIMUM                    MAXIMUM CHANGE
                   ITERATION ITERATION          CHANGE                    MODEL-(CELLID)
 ---------------------------------------------------------------------------------------
 Linear Solver             1        11    -6.21999                        1_GWF-(1,18,3)
 Under-relaxation          1              -6.21999                        1_GWF-(1,18,3)
 Linear Solver             2         3     5.62087                         1_GWF-(4,3,8)
 Under-relaxation          2               3.93461                         1_GWF-(4,3,8)
 Linear Solver             3         2     1.96676                        1_GWF-(4,7,28)
 Under-relaxation          3               1.57341                        1_GWF-(4,7,28)
 Linear Solver             4         5     2.19156                         1_GWF-(1,7,3)
 Under-relaxation          4               1.97240                         1_GWF-(1,7,3)
 Linear Solver             5         6     1.79942                        1_GWF-(4,6,33)
 Under-relaxation          5               1.79942                        1_GWF-(4,6,33)
 Linear Solver             6         6    0.675725                        1_GWF-(1,19,7)
 Under-relaxation          6              0.675725                        1_GWF-(1,19,7)
 Linear Solver             7         6    0.219452                        1_GWF-(1,22,6)
 Under-relaxation          7              0.219452                        1_GWF-(1,22,6)
 Linear Solver             8         3    5.930029E-02                    1_GWF-(1,21,8)

 8 CALLS TO NUMERICAL SOLUTION IN TIME STEP 1 STRESS PERIOD 1
 42 TOTAL ITERATIONS

 INNER ITERATION SUMMARY
 --------------------------------------------------------------------------------------------------------------------------------
     TOTAL      OUTER     INNER                    MAXIMUM CHANGE        MAXIMUM                  MAXIMUM RESIDUAL        MAXIMUM
 ITERATION  ITERATION ITERATION                    MODEL-(CELLID)         CHANGE                    MODEL-(CELLID)       RESIDUAL
 --------------------------------------------------------------------------------------------------------------------------------
          1         1         1                     1_GWF-(1,2,3)  0.1271248                       1_GWF-(6,12,30)   11396.16    
          2         1         2                     1_GWF-(1,2,3) -0.3056560                        1_GWF-(6,9,29)   3300.726    
          3         1         3                     1_GWF-(1,2,3) -0.2395531                         1_GWF-(9,3,4)   1773.430    
          4         1         4                     1_GWF-(1,2,3) -0.6128099                         1_GWF-(9,3,4)   1001.947    
          5         1         5                     1_GWF-(1,2,3) -0.7828478                         1_GWF-(9,3,4)   817.8180    
          6         1         6                     1_GWF-(1,2,3) -0.3818165                         1_GWF-(9,3,4)   335.8934    
          7         1         7                     1_GWF-(1,2,3) -0.3477598                         1_GWF-(9,3,4)   252.6776    
          8         1         8                     1_GWF-(1,2,3) -0.1522701                       1_GWF-(11,20,8)   107.9688    
          9         1         9                     1_GWF-(1,2,3) -0.6444922E-01                   1_GWF-(11,20,8)   56.50293    
         10         1        10                     1_GWF-(1,2,3) -0.2701197E-01                   1_GWF-(11,22,7)   34.10743    
         11         1        11                     1_GWF-(1,2,3)  0.3459497E-03                    1_GWF-(6,9,33)  -15.99770    
         12         2         1                     1_GWF-(1,2,3)   2.724083                        1_GWF-(6,9,33)  -5686.962    
         13         2         2                     1_GWF-(1,2,3)  0.5109948E-02                    1_GWF-(6,9,33)  -787.9461    
         14         2         3                     1_GWF-(1,2,3)  0.1282128E-03                    1_GWF-(6,9,33)  -128.4784    
         15         3         1                     1_GWF-(1,2,3)  0.8160699                        1_GWF-(6,9,33)  -1380.524    
         16         3         2                     1_GWF-(1,2,3)  0.1618057E-02                    1_GWF-(6,9,33)  -181.8878    
         17         4         1                     1_GWF-(1,2,3)  0.2284322                        1_GWF-(6,6,27)  -2401.738    
         18         4         2                     1_GWF-(1,2,3)  0.3351129E-02                    1_GWF-(7,5,26)  -839.8095    
         19         4         3                     1_GWF-(1,2,3)  0.2503307E-03                    1_GWF-(7,6,26)  -444.3872    
         20         4         4                    1_GWF-(4,5,27)  0.7286656E-01                    1_GWF-(6,6,27)  -60.42838    
         21         4         5                     1_GWF-(1,2,3) -0.1869240E-06                    1_GWF-(7,5,26)  -2.385699    
         22         5         1                     1_GWF-(1,2,3)  0.2311217E-01                    1_GWF-(6,5,34)  -2693.066    
         23         5         2                     1_GWF-(1,2,3)  0.7937891E-04                    1_GWF-(6,6,33)  -1170.166    
         24         5         3                     1_GWF-(1,2,3)  0.1894544E-04                    1_GWF-(6,6,33)  -546.8884    
         25         5         4                     1_GWF-(1,2,3)  0.7492680E-05                    1_GWF-(6,6,33)  -115.4240    
         26         5         5                     1_GWF-(1,2,3)  0.6243269E-05                    1_GWF-(6,6,33)  -57.32070    
         27         5         6                     1_GWF-(1,2,3)  0.1371696E-05                    1_GWF-(6,5,33)  -2.133725    
         28         6         1                     1_GWF-(1,2,3)  0.2261798                        1_GWF-(7,3,26)  -485.5467    
         29         6         2                     1_GWF-(1,2,3)  0.8396764E-01                    1_GWF-(6,4,27)  -232.6252    
         30         6         3                     1_GWF-(1,2,3)  0.5697959E-01                   1_GWF-(12,18,6)  -76.25971    
         31         6         4                     1_GWF-(1,2,3)  0.6030653E-03                   1_GWF-(12,18,6)  -27.37052    
         32         6         5                     1_GWF-(1,2,3) -0.3667024E-02                   1_GWF-(12,18,6)  -9.601924    
         33         6         6                     1_GWF-(1,2,3) -0.9215308E-03                   1_GWF-(12,18,6)  -2.718173    
         34         7         1                     1_GWF-(1,2,3) -0.1899625E-03                   1_GWF-(11,20,9)  -187.9853    
         35         7         2                     1_GWF-(1,2,3) -0.1118202E-03                   1_GWF-(11,20,9)  -101.4157    
         36         7         3                     1_GWF-(1,2,3) -0.7227070E-04                   1_GWF-(11,19,8)  -46.21583    
         37         7         4                     1_GWF-(1,2,3) -0.9015985E-06                   1_GWF-(11,19,8)  -18.69295    
         38         7         5                     1_GWF-(1,2,3)  0.8652009E-05                   1_GWF-(11,19,8)  -6.064859    
         39         7         6                     1_GWF-(1,2,3)  0.1989080E-05                   1_GWF-(11,19,8)  -1.263646    
         40         8         1                     1_GWF-(1,2,3) -0.5595896E-04                   1_GWF-(11,21,8)  -38.17193    
         41         8         2                     1_GWF-(1,2,3) -0.3754716E-04                   1_GWF-(11,20,9)  -17.02866    
         42         8         3                     1_GWF-(1,2,3) -0.1746763E-04                   1_GWF-(11,19,8)  -7.196368    
1
                            STRESS PERIOD NO.    2, LENGTH =   3287.000    
                            -----------------------------------------------

                              NUMBER OF TIME STEPS =    10

                               MULTIPLIER FOR DELT =     1.500

                            INITIAL TIME STEP SIZE =   29.00377    


 OUTER ITERATION SUMMARY
 ---------------------------------------------------------------------------------------
                       OUTER     INNER         MAXIMUM                    MAXIMUM CHANGE
                   ITERATION ITERATION          CHANGE                    MODEL-(CELLID)
 ---------------------------------------------------------------------------------------
 Linear Solver             1        12    -4.30773                        1_GWF-(1,18,3)
 Under-relaxation          1              -4.30773                        1_GWF-(1,18,3)
 Linear Solver             2         6     1.73524                        1_GWF-(1,28,5)
 Under-relaxation          2               1.21467                        1_GWF-(1,28,5)
 Linear Solver             3         5    0.515936                        1_GWF-(1,28,5)
 Under-relaxation          3              0.412749                        1_GWF-(1,28,5)
 Linear Solver             4         4    0.223024                        1_GWF-(1,19,8)
 Under-relaxation          4              0.200722                        1_GWF-(1,19,8)
 Linear Solver             5         3   -4.097547E-02                   1_GWF-(6,24,30)
 Under-relaxation          5              3.713014E-02                    1_GWF-(1,19,6)
 Linear Solver             6         2   -1.401228E-02                   1_GWF-(6,24,30)
 Under-relaxation          6             -1.106970E-02                   1_GWF-(6,24,30)
 Linear Solver             7         1   -3.121635E-03                   1_GWF-(6,24,30)

 7 CALLS TO NUMERICAL SOLUTION IN TIME STEP 1 STRESS PERIOD 2
 33 TOTAL ITERATIONS

 INNER ITERATION SUMMARY
 --------------------------------------------------------------------------------------------------------------------------------
     TOTAL      OUTER     INNER                    MAXIMUM CHANGE        MAXIMUM                  MAXIMUM RESIDUAL        MAXIMUM
 ITERATION  ITERATION ITERATION                    MODEL-(CELLID)         CHANGE                    MODEL-(CELLID)       RESIDUAL
 --------------------------------------------------------------------------------------------------------------------------------
          1         1         1                     1_GWF-(1,2,3)  0.1130115                       1_GWF-(6,12,30)   9373.123    
          2         1         2                     1_GWF-(1,2,3) -0.8472698E-01                   1_GWF-(6,17,33)   1857.783    
          3         1         3                     1_GWF-(1,2,3) -0.2047811                       1_GWF-(6,17,33)   995.2702    
          4         1         4                     1_GWF-(1,2,3) -0.2869958                       1_GWF-(11,22,7)   576.8807    
          5         1         5                     1_GWF-(1,2,3) -0.2263491                       1_GWF-(11,22,7)   480.9810    
          6         1         6                     1_GWF-(1,2,3) -0.1361945                       1_GWF-(11,22,7)   342.5629    
          7         1         7                     1_GWF-(1,2,3) -0.3860100E-01                   1_GWF-(11,22,7)   218.6419    
          8         1         8                     1_GWF-(1,2,3)  0.4580662E-02                   1_GWF-(11,20,9)   116.5803    
          9         1         9                     1_GWF-(1,2,3)  0.2364948E-01                   1_GWF-(11,20,9)   69.67890    
         10         1        10                     1_GWF-(1,2,3)  0.2045468E-01                    1_GWF-(6,5,33)  -41.82929    
         11         1        11                     1_GWF-(1,2,3)  0.1205539E-01                    1_GWF-(6,5,33)  -23.73044    
         12         1        12                     1_GWF-(1,2,3)  0.6704188E-02                    1_GWF-(6,5,33)  -11.80008    
         13         2         1                     1_GWF-(1,2,3)  0.1936633                       1_GWF-(11,22,6)  -1910.709    
         14         2         2                     1_GWF-(1,2,3)  0.1332752                       1_GWF-(11,21,7)  -414.6108    
         15         2         3                     1_GWF-(1,2,3)  0.6038117E-01                    1_GWF-(6,6,33)  -125.9627    
         16         2         4                     1_GWF-(1,2,3)  0.1710843E-01                    1_GWF-(6,5,27)  -47.54924    
         17         2         5                     1_GWF-(1,2,3)  0.4272865E-02                    1_GWF-(6,8,33)  -23.88306    
         18         2         6                     1_GWF-(1,2,3)  0.7323045E-03                    1_GWF-(6,5,27)  -10.83423    
         19         3         1                     1_GWF-(1,2,3)  0.5817388E-01                   1_GWF-(11,22,6)  -556.3471    
         20         3         2                     1_GWF-(1,2,3)  0.4122164E-01                    1_GWF-(6,6,33)  -153.8149    
         21         3         3                     1_GWF-(1,2,3)  0.1776153E-01                    1_GWF-(6,6,33)  -72.36543    
         22         3         4                     1_GWF-(1,2,3)  0.4676485E-02                    1_GWF-(6,6,33)  -23.84667    
         23         3         5                     1_GWF-(1,2,3)  0.9897043E-03                    1_GWF-(6,6,33)  -15.26023    
         24         4         1                     1_GWF-(1,2,3)  0.1170773E-01                   1_GWF-(11,19,8)  -279.6554    
         25         4         2                     1_GWF-(1,2,3)  0.9030118E-02                   1_GWF-(11,19,8)  -100.7867    
         26         4         3                     1_GWF-(1,2,3)  0.3940226E-02                   1_GWF-(11,19,8)  -31.21732    
         27         4         4                     1_GWF-(1,2,3)  0.3723973E-03                   1_GWF-(11,19,8)  -8.162169    
         28         5         1                     1_GWF-(1,2,3)  0.1030701E-02                   1_GWF-(11,19,8)  -39.43361    
         29         5         2                     1_GWF-(1,2,3)  0.6430684E-03                   1_GWF-(11,19,8)  -20.46405    
         30         5         3                     1_GWF-(1,2,3)  0.5029895E-03                   1_GWF-(11,19,8)  -7.111243    
         31         6         1                     1_GWF-(1,2,3)  0.6719271E-05                   1_GWF-(6,19,32)   8.217605    
         32         6         2                     1_GWF-(1,2,3) -0.1809994E-05                   1_GWF-(11,19,8)  -2.334124    
         33         7         1                     1_GWF-(1,2,3)  0.3334200E-05                   1_GWF-(6,18,33)   2.323839    


 OUTER ITERATION SUMMARY
 ---------------------------------------------------------------------------------------
                       OUTER     INNER         MAXIMUM                    MAXIMUM CHANGE
                   ITERATION ITERATION          CHANGE                    MODEL-(CELLID)
 ---------------------------------------------------------------------------------------
 Linear Solver             1         9    -1.82487                        1_GWF-(1,20,3)
 Under-relaxation          1              -1.82487                        1_GWF-(1,20,3)
 Linear Solver             2         6    0.331687                        1_GWF-(4,5,34)
 Under-relaxation          2             -0.298177                       1_GWF-(4,19,14)
 Linear Solver             3         4   -0.114303                       1_GWF-(4,23,33)
 Under-relaxation          3             -0.114303                       1_GWF-(4,23,33)
 Linear Solver             4         3   -4.841181E-02                   1_GWF-(4,25,31)
 Under-relaxation          4             -4.841181E-02                   1_GWF-(4,25,31)
 Linear Solver             5         2   -1.737923E-02                   1_GWF-(4,27,30)
 Under-relaxation          5             -1.737923E-02                   1_GWF-(4,27,30)
 Linear Solver             6         1   -5.428608E-03                   1_GWF-(4,27,30)
 Under-relaxation          6             -5.428608E-03                   1_GWF-(4,27,30)
 Linear Solver             7         1   -1.561800E-03                  1_GWF-(11,24,32)

 7 CALLS TO NUMERICAL SOLUTION IN TIME STEP 2 STRESS PERIOD 2
 26 TOTAL ITERATIONS

 INNER ITERATION SUMMARY
 --------------------------------------------------------------------------------------------------------------------------------
     TOTAL      OUTER     INNER                    MAXIMUM CHANGE        MAXIMUM                  MAXIMUM RESIDUAL        MAXIMUM
 ITERATION  ITERATION ITERATION                    MODEL-(CELLID)         CHANGE                    MODEL-(CELLID)       RESIDUAL
 --------------------------------------------------------------------------------------------------------------------------------
          1         1         1                     1_GWF-(1,2,3) -0.9187873E-02                    1_GWF-(7,8,28)   2409.837    
          2         1         2                     1_GWF-(1,2,3) -0.2447287                        1_GWF-(6,5,34)   909.0009    
          3         1         3                     1_GWF-(1,2,3) -0.1269530                        1_GWF-(6,6,33)   564.3983    
          4         1         4                     1_GWF-(1,2,3) -0.1019385                        1_GWF-(6,6,33)   397.3496    
          5         1         5                     1_GWF-(1,2,3) -0.1573300E-01                    1_GWF-(6,8,33)   179.5654    
          6         1         6                     1_GWF-(1,2,3) -0.5774607E-02                    1_GWF-(6,6,33)   102.7910    
          7         1         7                     1_GWF-(1,2,3)  0.1185853E-02                    1_GWF-(6,8,33)   38.45505    
          8         1         8                     1_GWF-(1,2,3)  0.1377006E-02                    1_GWF-(6,6,33)   21.98375    
          9         1         9                     1_GWF-(1,2,3)  0.2851727E-03                    1_GWF-(6,8,33)   7.654613    
         10         2         1                     1_GWF-(1,2,3)  0.5449464E-03                   1_GWF-(6,21,32)   572.1980    
         11         2         2                     1_GWF-(1,2,3)  0.3849900E-03                    1_GWF-(6,9,33)  -162.5581    
         12         2         3                     1_GWF-(1,2,3) -0.1684784E-02                    1_GWF-(6,9,33)  -96.13420    
         13         2         4                     1_GWF-(1,2,3) -0.2641040E-02                    1_GWF-(6,9,33)  -39.43557    
         14         2         5                     1_GWF-(1,2,3) -0.1903688E-02                    1_GWF-(6,9,33)  -20.76953    
         15         2         6                     1_GWF-(1,2,3) -0.3326346E-03                    1_GWF-(6,9,33)  -6.432864    
         16         3         1                     1_GWF-(1,2,3) -0.9676239E-04                   1_GWF-(6,21,32)   266.0026    
         17         3         2                     1_GWF-(1,2,3) -0.5737131E-04                    1_GWF-(6,9,33)  -56.17035    
         18         3         3                     1_GWF-(1,2,3) -0.1335431E-03                    1_GWF-(6,9,33)  -34.87883    
         19         3         4                     1_GWF-(1,2,3) -0.1796044E-03                    1_GWF-(6,9,33)  -14.96287    
         20         4         1                     1_GWF-(1,2,3) -0.9221711E-04                   1_GWF-(6,21,32)   101.7250    
         21         4         2                     1_GWF-(1,2,3) -0.5744663E-04                    1_GWF-(6,9,33)  -14.16503    
         22         4         3                     1_GWF-(1,2,3) -0.3935891E-04                    1_GWF-(6,9,33)  -7.923862    
         23         5         1                     1_GWF-(1,2,3) -0.1812105E-04                   1_GWF-(6,21,32)   33.45413    
         24         5         2                     1_GWF-(1,2,3) -0.1160051E-04                   1_GWF-(6,25,33)   4.735221    
         25         6         1                     1_GWF-(1,2,3) -0.6251678E-05                   1_GWF-(6,21,32)   10.18250    
         26         7         1                     1_GWF-(1,2,3) -0.3756369E-05                   1_GWF-(6,21,32)   3.936150    


 OUTER ITERATION SUMMARY
 ---------------------------------------------------------------------------------------
                       OUTER     INNER         MAXIMUM                    MAXIMUM CHANGE
                   ITERATION ITERATION          CHANGE                    MODEL-(CELLID)
 ---------------------------------------------------------------------------------------
 Linear Solver             1         7    -1.39081                         1_GWF-(1,5,3)
 Under-relaxation          1              -1.39081                         1_GWF-(1,5,3)
 Linear Solver             2         4   -0.253851                        1_GWF-(1,28,9)
 Under-relaxation          2             -0.253851                        1_GWF-(1,28,9)
 Linear Solver             3         3   -7.885587E-02                   1_GWF-(1,25,13)
 Under-relaxation          3             -7.885587E-02                   1_GWF-(1,25,13)
 Linear Solver             4         2   -3.079006E-02                   1_GWF-(4,25,31)
 Under-relaxation          4             -3.079006E-02                   1_GWF-(4,25,31)
 Linear Solver             5         2   -1.358873E-02                   1_GWF-(4,25,31)
 Under-relaxation          5             -1.358873E-02                   1_GWF-(4,25,31)
 Linear Solver             6         1   -5.407582E-03                   1_GWF-(4,27,30)
 Under-relaxation          6             -5.407582E-03                   1_GWF-(4,27,30)
 Linear Solver             7         1   -1.880338E-03                  1_GWF-(11,24,32)

 7 CALLS TO NUMERICAL SOLUTION IN TIME STEP 3 STRESS PERIOD 2
 20 TOTAL ITERATIONS

 INNER ITERATION SUMMARY
 --------------------------------------------------------------------------------------------------------------------------------
     TOTAL      OUTER     INNER                    MAXIMUM CHANGE        MAXIMUM                  MAXIMUM RESIDUAL        MAXIMUM
 ITERATION  ITERATION ITERATION                    MODEL-(CELLID)         CHANGE                    MODEL-(CELLID)       RESIDUAL
 --------------------------------------------------------------------------------------------------------------------------------
          1         1         1                     1_GWF-(1,2,3) -0.2058780                        1_GWF-(6,7,27)   2098.305    
          2         1         2                     1_GWF-(1,2,3) -0.5189506                         1_GWF-(9,3,4)   798.5518    
          3         1         3                     1_GWF-(1,2,3) -0.1879787                        1_GWF-(6,9,33)   302.9026    
          4         1         4                     1_GWF-(1,2,3) -0.1407491                        1_GWF-(6,9,33)   118.5682    
          5         1         5                     1_GWF-(1,2,3) -0.3028708E-01                    1_GWF-(6,9,33)   56.03695    
          6         1         6                     1_GWF-(1,2,3) -0.1251864E-01                    1_GWF-(6,9,33)   24.01157    
          7         1         7                     1_GWF-(1,2,3) -0.1638388E-02                    1_GWF-(6,9,33)   11.62253    
          8         2         1                     1_GWF-(1,2,3)  0.6722352E-01                   1_GWF-(6,21,32)   275.2635    
          9         2         2                     1_GWF-(1,2,3)  0.1853038E-01                    1_GWF-(6,9,33)  -61.50290    
         10         2         3                     1_GWF-(1,2,3)  0.1433100E-01                    1_GWF-(6,9,33)  -27.15090    
         11         2         4                     1_GWF-(1,2,3)  0.9764465E-03                    1_GWF-(6,9,33)  -7.872973    
         12         3         1                     1_GWF-(1,2,3)  0.2086138E-01                   1_GWF-(6,21,32)   149.2811    
         13         3         2                     1_GWF-(1,2,3)  0.4964883E-02                   1_GWF-(6,18,32)   26.79565    
         14         3         3                     1_GWF-(1,2,3)  0.3287236E-02                   1_GWF-(6,17,33)   8.588927    
         15         4         1                     1_GWF-(1,2,3)  0.4647044E-02                   1_GWF-(6,21,32)   70.06472    
         16         4         2                     1_GWF-(1,2,3)  0.1160856E-02                   1_GWF-(6,18,32)   12.70676    
         17         5         1                     1_GWF-(1,2,3)  0.1044200E-02                   1_GWF-(6,21,32)   30.43550    
         18         5         2                     1_GWF-(1,2,3)  0.4684510E-03                   1_GWF-(6,17,33)   5.942648    
         19         6         1                     1_GWF-(1,2,3)  0.1165323E-03                   1_GWF-(6,21,32)   10.26958    
         20         7         1                     1_GWF-(1,2,3)  0.6490034E-04                   1_GWF-(6,21,32)   5.194567    


 OUTER ITERATION SUMMARY
 ---------------------------------------------------------------------------------------
                       OUTER     INNER         MAXIMUM                    MAXIMUM CHANGE
                   ITERATION ITERATION          CHANGE                    MODEL-(CELLID)
 ---------------------------------------------------------------------------------------
 Linear Solver             1         7    -1.30869                         1_GWF-(1,4,3)
 Under-relaxation          1              -1.30869                         1_GWF-(1,4,3)
 Linear Solver             2         5   -0.202712                        1_GWF-(1,17,9)
 Under-relaxation          2             -0.202712                        1_GWF-(1,17,9)
 Linear Solver             3         3   -7.387626E-02                   1_GWF-(1,25,13)
 Under-relaxation          3             -7.387626E-02                   1_GWF-(1,25,13)
 Linear Solver             4         2   -2.746327E-02                   1_GWF-(1,25,13)
 Under-relaxation          4             -2.746327E-02                   1_GWF-(1,25,13)
 Linear Solver             5         2   -1.327758E-02                   1_GWF-(4,25,31)
 Under-relaxation          5             -1.327758E-02                   1_GWF-(4,25,31)
 Linear Solver             6         1   -6.411141E-03                   1_GWF-(4,27,30)
 Under-relaxation          6             -6.411141E-03                   1_GWF-(4,27,30)
 Linear Solver             7         1   -2.708041E-03                   1_GWF-(4,27,30)

 7 CALLS TO NUMERICAL SOLUTION IN TIME STEP 4 STRESS PERIOD 2
 21 TOTAL ITERATIONS

 INNER ITERATION SUMMARY
 --------------------------------------------------------------------------------------------------------------------------------
     TOTAL      OUTER     INNER                    MAXIMUM CHANGE        MAXIMUM                  MAXIMUM RESIDUAL        MAXIMUM
 ITERATION  ITERATION ITERATION                    MODEL-(CELLID)         CHANGE                    MODEL-(CELLID)       RESIDUAL
 --------------------------------------------------------------------------------------------------------------------------------
          1         1         1                     1_GWF-(1,2,3) -0.3939601                         1_GWF-(9,3,4)   1369.242    
          2         1         2                     1_GWF-(1,2,3) -0.6480156                        1_GWF-(12,6,7)   780.6393    
          3         1         3                     1_GWF-(1,2,3) -0.1023821                        1_GWF-(6,9,33)   236.1607    
          4         1         4                     1_GWF-(1,2,3) -0.7309526E-01                    1_GWF-(6,9,33)   85.96718    
          5         1         5                     1_GWF-(1,2,3) -0.3197164E-02                    1_GWF-(6,9,33)   34.86186    
          6         1         6                     1_GWF-(1,2,3)  0.3800807E-02                    1_GWF-(6,5,27)  -13.38562    
          7         1         7                     1_GWF-(1,2,3)  0.7001854E-02                    1_GWF-(6,3,27)  -5.857907    
          8         2         1                     1_GWF-(1,2,3)  0.1525453E-02                   1_GWF-(11,17,9)   211.7517    
          9         2         2                     1_GWF-(1,2,3)  0.3808267E-03                   1_GWF-(11,19,9)   72.32403    
         10         2         3                     1_GWF-(1,2,3) -0.1380520E-02                   1_GWF-(11,19,9)   34.89221    
         11         2         4                     1_GWF-(1,2,3) -0.3385076E-02                   1_GWF-(11,19,8)   14.73693    
         12         2         5                     1_GWF-(1,2,3) -0.1949308E-02                   1_GWF-(11,20,8)   7.035013    
         13         3         1                     1_GWF-(1,2,3) -0.3238132E-03                   1_GWF-(6,21,32)   109.4741    
         14         3         2                     1_GWF-(1,2,3) -0.3136218E-03                   1_GWF-(6,18,32)   20.77524    
         15         3         3                     1_GWF-(1,2,3) -0.2696640E-03                    1_GWF-(7,3,26)  -10.38555    
         16         4         1                     1_GWF-(1,2,3) -0.3034075E-03                   1_GWF-(6,21,32)   60.34197    
         17         4         2                     1_GWF-(1,2,3) -0.2873850E-03                   1_GWF-(6,17,33)   12.17300    
         18         5         1                     1_GWF-(1,2,3) -0.1513661E-03                   1_GWF-(6,21,32)   30.68277    
         19         5         2                     1_GWF-(1,2,3) -0.1598866E-03                   1_GWF-(6,17,33)   7.678977    
         20         6         1                     1_GWF-(1,2,3) -0.7748308E-04                   1_GWF-(6,21,32)   12.45005    
         21         7         1                     1_GWF-(1,2,3) -0.5172086E-04                   1_GWF-(6,21,32)   7.741262    


 OUTER ITERATION SUMMARY
 ---------------------------------------------------------------------------------------
                       OUTER     INNER         MAXIMUM                    MAXIMUM CHANGE
                   ITERATION ITERATION          CHANGE                    MODEL-(CELLID)
 ---------------------------------------------------------------------------------------
 Linear Solver             1         8    -1.41687                         1_GWF-(1,2,3)
 Under-relaxation          1              -1.41687                         1_GWF-(1,2,3)
 Linear Solver             2         4   -0.322906                       1_GWF-(4,11,16)
 Under-relaxation          2             -0.322906                       1_GWF-(4,11,16)
 Linear Solver             3         3   -6.364875E-02                   1_GWF-(1,25,13)
 Under-relaxation          3             -6.364875E-02                   1_GWF-(1,25,13)
 Linear Solver             4         3   -5.641849E-02                    1_GWF-(4,2,31)
 Under-relaxation          4             -5.641849E-02                    1_GWF-(4,2,31)
 Linear Solver             5         2   -1.425785E-02                   1_GWF-(4,25,31)
 Under-relaxation          5             -1.425785E-02                   1_GWF-(4,25,31)
 Linear Solver             6         1   -8.269512E-03                   1_GWF-(4,27,30)

 6 CALLS TO NUMERICAL SOLUTION IN TIME STEP 5 STRESS PERIOD 2
 21 TOTAL ITERATIONS

 INNER ITERATION SUMMARY
 --------------------------------------------------------------------------------------------------------------------------------
     TOTAL      OUTER     INNER                    MAXIMUM CHANGE        MAXIMUM                  MAXIMUM RESIDUAL        MAXIMUM
 ITERATION  ITERATION ITERATION                    MODEL-(CELLID)         CHANGE                    MODEL-(CELLID)       RESIDUAL
 --------------------------------------------------------------------------------------------------------------------------------
          1         1         1                     1_GWF-(1,2,3) -0.5820155                        1_GWF-(6,9,33)   883.9208    
          2         1         2                     1_GWF-(1,2,3) -0.7715247                        1_GWF-(12,6,7)   872.1485    
          3         1         3                     1_GWF-(1,2,3) -0.9304685E-01                    1_GWF-(12,6,7)  -285.5268    
          4         1         4                     1_GWF-(1,2,3) -0.1640377E-01                    1_GWF-(6,4,27)  -82.17006    
          5         1         5                     1_GWF-(1,2,3)  0.1062857E-01                    1_GWF-(6,5,27)  -48.58263    
          6         1         6                     1_GWF-(1,2,3)  0.1924874E-01                    1_GWF-(6,8,33)  -20.97511    
          7         1         7                     1_GWF-(1,2,3)  0.1556409E-01                   1_GWF-(6,10,32)  -9.366045    
          8         1         8                     1_GWF-(1,2,3)  0.6767804E-03                     1_GWF-(9,3,4)  -4.149368    
          9         2         1                     1_GWF-(1,2,3)  0.3523015E-03                    1_GWF-(10,9,4)   156.5277    
         10         2         2                     1_GWF-(1,2,3)  0.2780835E-03                    1_GWF-(10,7,6)   40.05487    
         11         2         3                     1_GWF-(1,2,3) -0.1237314E-02                    1_GWF-(10,7,6)   18.98103    
         12         2         4                     1_GWF-(1,2,3) -0.3307565E-02                   1_GWF-(11,19,8)   7.139338    
         13         3         1                     1_GWF-(1,2,3) -0.1570491E-02                    1_GWF-(6,2,33)   92.92248    
         14         3         2                     1_GWF-(1,2,3) -0.1308462E-02                   1_GWF-(6,17,33)   19.51631    
         15         3         3                     1_GWF-(1,2,3) -0.1288435E-02                    1_GWF-(6,4,33)   9.367759    
         16         4         1                     1_GWF-(1,2,3) -0.7659154E-03                    1_GWF-(6,2,31)   57.05354    
         17         4         2                     1_GWF-(1,2,3) -0.7491095E-03                    1_GWF-(6,2,33)   18.21952    
         18         4         3                     1_GWF-(1,2,3) -0.6085872E-03                    1_GWF-(6,2,33)   9.412186    
         19         5         1                     1_GWF-(1,2,3) -0.2883794E-03                   1_GWF-(6,21,32)   33.67504    
         20         5         2                     1_GWF-(1,2,3) -0.2821273E-03                   1_GWF-(6,17,33)   7.522867    
         21         6         1                     1_GWF-(1,2,3) -0.1433018E-03                   1_GWF-(6,21,32)   18.97579    


 OUTER ITERATION SUMMARY
 ---------------------------------------------------------------------------------------
                       OUTER     INNER         MAXIMUM                    MAXIMUM CHANGE
                   ITERATION ITERATION          CHANGE                    MODEL-(CELLID)
 ---------------------------------------------------------------------------------------
 Linear Solver             1         8    -1.28392                         1_GWF-(1,2,3)
 Under-relaxation          1              -1.28392                         1_GWF-(1,2,3)
 Linear Solver             2         5   -0.628591                       1_GWF-(4,27,17)
 Under-relaxation          2             -0.628591                       1_GWF-(4,27,17)
 Linear Solver             3         3   -0.121890                       1_GWF-(4,28,21)
 Under-relaxation          3             -0.121890                       1_GWF-(4,28,21)
 Linear Solver             4         2   -2.885218E-02                   1_GWF-(1,25,13)
 Under-relaxation          4             -2.885218E-02                   1_GWF-(1,25,13)
 Linear Solver             5         2   -1.734843E-02                   1_GWF-(4,23,33)
 Under-relaxation          5             -1.734843E-02                   1_GWF-(4,23,33)
 Linear Solver             6         2   -1.320842E-02                   1_GWF-(4,25,31)

 6 CALLS TO NUMERICAL SOLUTION IN TIME STEP 6 STRESS PERIOD 2
 22 TOTAL ITERATIONS

 INNER ITERATION SUMMARY
 --------------------------------------------------------------------------------------------------------------------------------
     TOTAL      OUTER     INNER                    MAXIMUM CHANGE        MAXIMUM                  MAXIMUM RESIDUAL        MAXIMUM
 ITERATION  ITERATION ITERATION                    MODEL-(CELLID)         CHANGE                    MODEL-(CELLID)       RESIDUAL
 --------------------------------------------------------------------------------------------------------------------------------
          1         1         1                     1_GWF-(1,2,3) -0.5288761                        1_GWF-(6,3,27)   722.1069    
          2         1         2                     1_GWF-(1,2,3) -0.6856181                        1_GWF-(7,3,26)  -748.0865    
          3         1         3                     1_GWF-(1,2,3) -0.1485751                        1_GWF-(12,6,7)  -245.6196    
          4         1         4                     1_GWF-(1,2,3)  0.6665985E-02                    1_GWF-(6,4,27)  -138.3282    
          5         1         5                     1_GWF-(1,2,3)  0.1510764E-01                    1_GWF-(7,3,26)  -97.76179    
          6         1         6                     1_GWF-(1,2,3)  0.3868338E-01                    1_GWF-(7,3,26)  -34.34387    
          7         1         7                     1_GWF-(1,2,3)  0.1435221E-01                     1_GWF-(9,3,4)  -16.61368    
          8         1         8                     1_GWF-(1,2,3)  0.4335857E-02                     1_GWF-(9,3,5)  -8.669924    
          9         2         1                     1_GWF-(1,2,3)  0.1253408E-02                  1_GWF-(11,27,14)   336.3644    
         10         2         2                     1_GWF-(1,2,3)  0.1575231E-02                  1_GWF-(11,27,14)   137.0477    
         11         2         3                     1_GWF-(1,2,3)  0.2675962E-03                  1_GWF-(11,27,14)   29.43698    
         12         2         4                     1_GWF-(1,2,3) -0.3319889E-02                   1_GWF-(11,19,8)   7.904508    
         13         2         5                     1_GWF-(1,2,3) -0.2905866E-02                     1_GWF-(9,3,4)   6.467306    
         14         3         1                     1_GWF-(1,2,3) -0.8659460E-03                   1_GWF-(6,21,32)   76.74348    
         15         3         2                     1_GWF-(1,2,3) -0.9071901E-03                   1_GWF-(6,18,32)   18.54148    
         16         3         3                     1_GWF-(1,2,3) -0.9194035E-03                    1_GWF-(10,8,5)   8.543672    
         17         4         1                     1_GWF-(1,2,3) -0.9151345E-03                   1_GWF-(6,21,32)   62.49130    
         18         4         2                     1_GWF-(1,2,3) -0.1020627E-02                   1_GWF-(6,17,33)   16.66996    
         19         5         1                     1_GWF-(1,2,3) -0.5813888E-03                   1_GWF-(6,21,32)   48.37002    
         20         5         2                     1_GWF-(1,2,3) -0.6116668E-03                   1_GWF-(6,17,33)   16.33864    
         21         6         1                     1_GWF-(1,2,3) -0.4157410E-03                   1_GWF-(6,21,32)   32.30818    
         22         6         2                     1_GWF-(1,2,3) -0.3630985E-03                   1_GWF-(5,24,32)  -12.88994    


 OUTER ITERATION SUMMARY
 ---------------------------------------------------------------------------------------
                       OUTER     INNER         MAXIMUM                    MAXIMUM CHANGE
                   ITERATION ITERATION          CHANGE                    MODEL-(CELLID)
 ---------------------------------------------------------------------------------------
 Linear Solver             1         8    -1.48525                        1_GWF-(4,2,20)
 Under-relaxation          1              -1.48525                        1_GWF-(4,2,20)
 Linear Solver             2         5   -0.340789                       1_GWF-(4,28,23)
 Under-relaxation          2             -0.340789                       1_GWF-(4,28,23)
 Linear Solver             3         4   -0.671850                       1_GWF-(4,23,30)
 Under-relaxation          3             -0.671850                       1_GWF-(4,23,30)
 Linear Solver             4         3   -0.623331                       1_GWF-(4,22,27)
 Under-relaxation          4             -0.623331                       1_GWF-(4,22,27)
 Linear Solver             5         3   -0.478396                       1_GWF-(4,20,27)
 Under-relaxation          5             -0.478396                       1_GWF-(4,20,27)
 Linear Solver             6         4   -0.312829                       1_GWF-(4,26,30)
 Under-relaxation          6             -0.312829                       1_GWF-(4,26,30)
 Linear Solver             7         5   -0.188747                       1_GWF-(4,17,30)
 Under-relaxation          7             -0.188747                       1_GWF-(4,17,30)
 Linear Solver             8         4   -0.144557                       1_GWF-(4,24,33)
 Under-relaxation          8             -0.144557                       1_GWF-(4,24,33)
 Linear Solver             9         5   -0.150564                       1_GWF-(4,22,34)
 Under-relaxation          9             -0.150564                       1_GWF-(4,22,34)
 Linear Solver            10         4   -0.124550                       1_GWF-(4,21,34)
 Under-relaxation         10             -0.124550                       1_GWF-(4,21,34)
 Linear Solver            11         4   -5.282372E-02                   1_GWF-(4,20,34)

 11 CALLS TO NUMERICAL SOLUTION IN TIME STEP 7 STRESS PERIOD 2
 49 TOTAL ITERATIONS

 INNER ITERATION SUMMARY
 --------------------------------------------------------------------------------------------------------------------------------
     TOTAL      OUTER     INNER                    MAXIMUM CHANGE        MAXIMUM                  MAXIMUM RESIDUAL        MAXIMUM
 ITERATION  ITERATION ITERATION                    MODEL-(CELLID)         CHANGE                    MODEL-(CELLID)       RESIDUAL
 --------------------------------------------------------------------------------------------------------------------------------
          1         1         1                     1_GWF-(1,2,3) -0.3502955                        1_GWF-(6,3,27)   838.9892    
          2         1         2                     1_GWF-(1,2,3) -0.4833933                        1_GWF-(7,6,26)  -591.6094    
          3         1         3                     1_GWF-(1,2,3) -0.1167926                      1_GWF-(11,28,15)  -242.3730    
          4         1         4                     1_GWF-(1,2,3) -0.2298633E-01                    1_GWF-(6,3,27)  -162.9762    
          5         1         5                     1_GWF-(1,2,3)  0.2185163E-01                    1_GWF-(6,3,27)  -124.9001    
          6         1         6                     1_GWF-(1,2,3)  0.1341532E-01                    1_GWF-(6,3,27)  -73.66377    
          7         1         7                     1_GWF-(1,2,3)  0.2290594E-01                    1_GWF-(6,3,27)  -32.96133    
          8         1         8                     1_GWF-(1,2,3)  0.7095917E-02                    1_GWF-(6,3,27)  -13.75601    
          9         2         1                     1_GWF-(1,2,3)  0.2070280E-02                    1_GWF-(7,8,28)   106.0117    
         10         2         2                     1_GWF-(1,2,3)  0.2145693E-02                    1_GWF-(6,7,27)   48.84007    
         11         2         3                     1_GWF-(1,2,3) -0.2940428E-02                    1_GWF-(6,7,27)   26.68776    
         12         2         4                     1_GWF-(1,2,3) -0.7178124E-02                    1_GWF-(6,6,27)   12.93423    
         13         2         5                     1_GWF-(1,2,3) -0.6876926E-02                     1_GWF-(9,3,4)   8.884699    
         14         3         1                     1_GWF-(1,2,3) -0.1534546E-02                   1_GWF-(6,21,32)   224.2704    
         15         3         2                     1_GWF-(1,2,3) -0.1487888E-02                   1_GWF-(6,21,32)   44.64915    
         16         3         3                     1_GWF-(1,2,3) -0.1677615E-02                    1_GWF-(6,3,27)   17.70399    
         17         3         4                     1_GWF-(1,2,3) -0.2715215E-02                   1_GWF-(6,21,32)  -13.67331    
         18         4         1                     1_GWF-(1,2,3) -0.1277217E-02                   1_GWF-(6,26,31)   65.40390    
         19         4         2                     1_GWF-(1,2,3) -0.1199769E-02                   1_GWF-(6,21,32)   17.26555    
         20         4         3                     1_GWF-(1,2,3) -0.1143235E-02                   1_GWF-(6,17,33)   8.667400    
         21         5         1                     1_GWF-(1,2,3) -0.6632063E-03                   1_GWF-(6,25,31)   72.90607    
         22         5         2                     1_GWF-(1,2,3) -0.7619561E-03                   1_GWF-(6,18,32)   19.58869    
         23         5         3                     1_GWF-(1,2,3) -0.8382479E-03                   1_GWF-(6,17,33)   9.907185    
         24         6         1                     1_GWF-(1,2,3) -0.3126615E-03                   1_GWF-(6,17,32)   100.5885    
         25         6         2                     1_GWF-(1,2,3) -0.4409194E-03                   1_GWF-(6,18,32)   28.01914    
         26         6         3                     1_GWF-(1,2,3)  0.1845440E-03                   1_GWF-(8,13,29)  -20.46673    
         27         6         4                     1_GWF-(1,2,3) -0.7662314E-03                   1_GWF-(6,18,32)  -11.10314    
         28         7         1                     1_GWF-(1,2,3) -0.5834075E-04                   1_GWF-(6,16,32)   193.7677    
         29         7         2                     1_GWF-(1,2,3) -0.1521086                       1_GWF-(6,16,32)   15798.92    
         30         7         3                   1_GWF-(4,17,31)  -7.125872                       1_GWF-(6,17,33)   39.03111    
         31         7         4                     1_GWF-(1,2,3) -0.1402348E-02                   1_GWF-(6,18,33)   14.81298    
         32         7         5                     1_GWF-(1,2,3) -0.1430587E-03                   1_GWF-(6,17,32)   9.985806    
         33         8         1                     1_GWF-(1,2,3) -0.1297805E-04                   1_GWF-(6,15,32)   158.8424    
         34         8         2                     1_GWF-(1,2,3)  0.3719376E-03                   1_GWF-(6,23,33)  -1070.911    
         35         8         3                     1_GWF-(1,2,3) -0.3913651E-03                   1_GWF-(6,18,33)   23.63231    
         36         8         4                     1_GWF-(1,2,3) -0.3058046E-04                   1_GWF-(6,23,33)  -17.61882    
         37         9         1                     1_GWF-(1,2,3) -0.1215375E-04                   1_GWF-(6,22,34)   93.51362    
         38         9         2                     1_GWF-(1,2,3) -0.2602736E-04                   1_GWF-(6,22,33)  -78.04855    
         39         9         3                     1_GWF-(1,2,3) -0.6547023E-06                   1_GWF-(6,22,33)  -39.48597    
         40         9         4                     1_GWF-(1,2,3) -0.1071082E-04                   1_GWF-(6,25,32)   8.750135    
         41         9         5                     1_GWF-(1,2,3) -0.9247876E-05                   1_GWF-(6,16,32)   6.092918    
         42        10         1                     1_GWF-(1,2,3)  0.1356057E-05                   1_GWF-(6,20,33)   74.78139    
         43        10         2                     1_GWF-(1,2,3) -0.2706653E-04                   1_GWF-(6,21,33)  -141.0110    
         44        10         3                     1_GWF-(1,2,3)  0.3242718E-04                   1_GWF-(6,21,33)  -34.88106    
         45        10         4                     1_GWF-(1,2,3) -0.2091237E-04                   1_GWF-(6,21,33)  -18.72784    
         46        11         1                     1_GWF-(1,2,3) -0.2440768E-05                   1_GWF-(6,19,33)   38.65307    
         47        11         2                     1_GWF-(1,2,3) -0.1578738E-04                   1_GWF-(6,20,33)  -35.65246    
         48        11         3                     1_GWF-(1,2,3)  0.1225806E-04                   1_GWF-(6,17,32)   7.732795    
         49        11         4                     1_GWF-(1,2,3) -0.6761073E-06                   1_GWF-(6,19,31)   8.790708    


 OUTER ITERATION SUMMARY
 ---------------------------------------------------------------------------------------
                       OUTER     INNER         MAXIMUM                    MAXIMUM CHANGE
                   ITERATION ITERATION          CHANGE                    MODEL-(CELLID)
 ---------------------------------------------------------------------------------------
 Linear Solver             1        15    -1.65781                        1_GWF-(4,2,20)
 Under-relaxation          1              -1.65781                        1_GWF-(4,2,20)
 Linear Solver             2        12   -0.679571                       1_GWF-(4,13,10)
 Under-relaxation          2             -0.679571                       1_GWF-(4,13,10)
 Linear Solver             3        10   -0.591395                       1_GWF-(1,21,12)
 Under-relaxation          3             -0.591395                       1_GWF-(1,21,12)
 Linear Solver             4         8   -0.437891                        1_GWF-(1,10,5)
 Under-relaxation          4             -0.437891                        1_GWF-(1,10,5)
 Linear Solver             5         6   -0.199690                       1_GWF-(1,25,13)
 Under-relaxation          5             -0.199690                       1_GWF-(1,25,13)
 Linear Solver             6         4   -6.697889E-02                     1_GWF-(1,6,4)

 6 CALLS TO NUMERICAL SOLUTION IN TIME STEP 8 STRESS PERIOD 2
 55 TOTAL ITERATIONS

 INNER ITERATION SUMMARY
 --------------------------------------------------------------------------------------------------------------------------------
     TOTAL      OUTER     INNER                    MAXIMUM CHANGE        MAXIMUM                  MAXIMUM RESIDUAL        MAXIMUM
 ITERATION  ITERATION ITERATION                    MODEL-(CELLID)         CHANGE                    MODEL-(CELLID)       RESIDUAL
 --------------------------------------------------------------------------------------------------------------------------------
          1         1         1                     1_GWF-(1,2,3) -0.1765578                        1_GWF-(6,3,27)   708.1950    
          2         1         2                     1_GWF-(1,2,3) -0.2613938                        1_GWF-(6,5,28)   464.4014    
          3         1         3                     1_GWF-(1,2,3) -0.1095795                      1_GWF-(11,28,15)  -289.6279    
          4         1         4                     1_GWF-(1,2,3) -0.3890965E-01                    1_GWF-(6,5,28)  -147.2926    
          5         1         5                     1_GWF-(1,2,3)  0.7878355E-03                    1_GWF-(6,6,27)  -107.2109    
          6         1         6                     1_GWF-(1,2,3)  0.1303525E-01                    1_GWF-(6,4,27)  -79.56682    
          7         1         7                     1_GWF-(1,2,3)  0.6215323E-02                    1_GWF-(6,3,27)  -62.63785    
          8         1         8                     1_GWF-(1,2,3)  0.3545205E-01                   1_GWF-(6,15,32)   21.31867    
          9         1         9                     1_GWF-(1,2,3)  0.4578552E-03                  1_GWF-(11,27,14)  -16.70522    
         10         1        10                     1_GWF-(1,2,3) -0.6303304E-03                   1_GWF-(6,15,33)   10.77439    
         11         1        11                     1_GWF-(1,2,3)  0.5839697E-03                   1_GWF-(6,12,31)   8.499829    
         12         1        12                     1_GWF-(1,2,3) -0.1559859E-02                   1_GWF-(6,13,31)   19.37801    
         13         1        13                     1_GWF-(1,2,3)  0.1374482E-02                   1_GWF-(6,15,32)   6.836089    
         14         1        14                     1_GWF-(1,2,3)  0.2032760E-03                   1_GWF-(6,18,32)   2.447567    
         15         1        15                     1_GWF-(1,2,3) -0.6667874E-04                   1_GWF-(6,16,32)   1.559263    
         16         2         1                     1_GWF-(1,2,3) -0.3607862E-03                   1_GWF-(6,27,32)   334.8113    
         17         2         2                     1_GWF-(1,2,3) -0.2664820E-03                    1_GWF-(6,6,29)   184.6863    
         18         2         3                     1_GWF-(1,2,3) -0.8890382E-02                   1_GWF-(6,26,33)   120.9726    
         19         2         4                     1_GWF-(1,2,3) -0.2019837E-01                    1_GWF-(6,8,29)   80.28205    
         20         2         5                     1_GWF-(1,2,3) -0.2126868E-01                    1_GWF-(6,5,28)   79.90376    
         21         2         6                     1_GWF-(1,2,3) -0.1086625E-01                    1_GWF-(6,2,33)   47.78376    
         22         2         7                     1_GWF-(1,2,3) -0.7020713E-02                    1_GWF-(6,5,28)   43.38776    
         23         2         8                     1_GWF-(1,2,3) -0.4974723E-02                    1_GWF-(6,2,33)   25.39387    
         24         2         9                     1_GWF-(1,2,3)  0.3952613E-03                    1_GWF-(6,5,28)   23.31703    
         25         2        10                     1_GWF-(1,2,3)  0.1984752E-03                    1_GWF-(6,3,33)   13.92908    
         26         2        11                     1_GWF-(1,2,3)  0.2103231E-02                    1_GWF-(6,5,28)   13.72784    
         27         2        12                     1_GWF-(1,2,3)  0.5769124E-03                    1_GWF-(6,5,28)   7.852100    
         28         3         1                     1_GWF-(1,2,3)  0.3061130E-03                   1_GWF-(11,23,3)   295.9439    
         29         3         2                     1_GWF-(1,2,3)  0.3930902E-03                   1_GWF-(12,11,7)   90.86609    
         30         3         3                     1_GWF-(1,2,3) -0.8180660E-03                   1_GWF-(11,20,9)   56.77554    
         31         3         4                     1_GWF-(1,2,3) -0.6475578E-02                   1_GWF-(11,20,8)   38.40993    
         32         3         5                     1_GWF-(1,2,3) -0.8626474E-02                   1_GWF-(11,20,8)   31.56896    
         33         3         6                     1_GWF-(1,2,3) -0.4677034E-02                   1_GWF-(11,19,8)   24.52388    
         34         3         7                     1_GWF-(1,2,3) -0.6292754E-02                   1_GWF-(11,20,8)   16.50643    
         35         3         8                     1_GWF-(1,2,3) -0.3398448E-02                   1_GWF-(11,20,8)   8.716647    
         36         3         9                     1_GWF-(1,2,3) -0.2959917E-02                   1_GWF-(11,23,3)   5.696942    
         37         3        10                     1_GWF-(1,2,3) -0.1071885E-02                   1_GWF-(11,23,3)   3.631834    
         38         4         1                     1_GWF-(1,2,3)  0.1656186E-03                    1_GWF-(10,9,4)   260.5610    
         39         4         2                     1_GWF-(1,2,3)  0.1914790E-03                    1_GWF-(10,9,4)   97.60856    
         40         4         3                     1_GWF-(1,2,3)  0.2644715E-03                    1_GWF-(10,9,4)   51.56793    
         41         4         4                     1_GWF-(1,2,3) -0.1715407E-02                    1_GWF-(10,7,6)   20.37455    
         42         4         5                     1_GWF-(1,2,3) -0.2871475E-02                    1_GWF-(10,5,6)   12.78506    
         43         4         6                     1_GWF-(1,2,3) -0.2721279E-02                   1_GWF-(12,14,6)   7.888785    
         44         4         7                     1_GWF-(1,2,3) -0.4181264E-02                     1_GWF-(9,3,4)   8.303154    
         45         4         8                     1_GWF-(1,2,3) -0.3445449E-02                   1_GWF-(11,19,8)   3.839318    
         46         5         1                     1_GWF-(1,2,3) -0.8490962E-03                    1_GWF-(10,7,4)   98.43554    
         47         5         2                     1_GWF-(1,2,3) -0.9290157E-03                     1_GWF-(9,8,3)   51.83756    
         48         5         3                     1_GWF-(1,2,3) -0.2150332E-02                    1_GWF-(10,9,4)   22.60590    
         49         5         4                     1_GWF-(1,2,3) -0.2796099E-02                  1_GWF-(11,27,14)   11.62895    
         50         5         5                     1_GWF-(1,2,3) -0.7110668E-02                     1_GWF-(9,3,4)   7.562675    
         51         5         6                     1_GWF-(1,2,3) -0.4451095E-02                   1_GWF-(11,22,7)   4.901669    
         52         6         1                     1_GWF-(1,2,3) -0.1297177E-02                    1_GWF-(10,6,4)   29.47828    
         53         6         2                     1_GWF-(1,2,3) -0.2227916E-02                     1_GWF-(9,5,4)   9.722151    
         54         6         3                     1_GWF-(1,2,3) -0.8008174E-02                     1_GWF-(9,2,4)   6.732511    
         55         6         4                     1_GWF-(1,2,3) -0.7514053E-02                     1_GWF-(9,3,5)   5.801205    


 OUTER ITERATION SUMMARY
 ---------------------------------------------------------------------------------------
                       OUTER     INNER         MAXIMUM                    MAXIMUM CHANGE
                   ITERATION ITERATION          CHANGE                    MODEL-(CELLID)
 ---------------------------------------------------------------------------------------
 Linear Solver             1        15    -2.01163                        1_GWF-(4,2,20)
 Under-relaxation          1              -2.01163                        1_GWF-(4,2,20)
 Linear Solver             2        12   -0.732170                        1_GWF-(1,19,3)
 Under-relaxation          2             -0.732170                        1_GWF-(1,19,3)
 Linear Solver             3         1   -1.620980E-03                   1_GWF-(11,28,4)

 3 CALLS TO NUMERICAL SOLUTION IN TIME STEP 9 STRESS PERIOD 2
 28 TOTAL ITERATIONS

 INNER ITERATION SUMMARY
 --------------------------------------------------------------------------------------------------------------------------------
     TOTAL      OUTER     INNER                    MAXIMUM CHANGE        MAXIMUM                  MAXIMUM RESIDUAL        MAXIMUM
 ITERATION  ITERATION ITERATION                    MODEL-(CELLID)         CHANGE                    MODEL-(CELLID)       RESIDUAL
 --------------------------------------------------------------------------------------------------------------------------------
          1         1         1                     1_GWF-(1,2,3) -0.8288387E-01                    1_GWF-(6,3,26)   548.6153    
          2         1         2                     1_GWF-(1,2,3) -0.3430898                        1_GWF-(6,5,28)   980.7341    
          3         1         3                     1_GWF-(1,2,3) -0.2489422                        1_GWF-(8,7,26)  -495.0745    
          4         1         4                     1_GWF-(1,2,3) -0.1598028                        1_GWF-(6,3,26)  -382.5205    
          5         1         5                     1_GWF-(1,2,3) -0.1148313                        1_GWF-(6,3,26)  -217.6996    
          6         1         6                     1_GWF-(1,2,3) -0.8453703E-02                    1_GWF-(6,6,33)   184.0841    
          7         1         7                     1_GWF-(1,2,3) -0.2664338E-01                    1_GWF-(6,5,33)   128.9276    
          8         1         8                     1_GWF-(1,2,3) -0.4380557E-01                    1_GWF-(6,4,33)   54.71035    
          9         1         9                     1_GWF-(1,2,3)  0.2492854E-01                  1_GWF-(11,18,10)  -186.4345    
         10         1        10                     1_GWF-(1,2,3) -0.2340819E-01                    1_GWF-(6,5,33)   44.47489    
         11         1        11                     1_GWF-(1,2,3) -0.6431116E-02                    1_GWF-(6,5,33)   48.42620    
         12         1        12                     1_GWF-(1,2,3) -0.2047247E-02                    1_GWF-(6,4,33)   32.27508    
         13         1        13                     1_GWF-(1,2,3) -0.1725443E-02                    1_GWF-(6,8,29)   18.04426    
         14         1        14                     1_GWF-(1,2,3) -0.2169349E-02                    1_GWF-(6,5,28)   9.240080    
         15         1        15                     1_GWF-(1,2,3)  0.1769361E-02                    1_GWF-(6,5,28)   10.75508    
         16         2         1                     1_GWF-(1,2,3)  0.3727575E-03                   1_GWF-(12,19,3)   262.2243    
         17         2         2                     1_GWF-(1,2,3)  0.4752426E-03                   1_GWF-(12,19,3)   121.2235    
         18         2         3                     1_GWF-(1,2,3)  0.9135224E-03                   1_GWF-(12,19,3)   48.80783    
         19         2         4                     1_GWF-(1,2,3)  0.7999136E-03                   1_GWF-(11,22,6)   27.94289    
         20         2         5                     1_GWF-(1,2,3)  0.9525701E-03                   1_GWF-(11,22,6)   24.34165    
         21         2         6                     1_GWF-(1,2,3)  0.7884016E-03                   1_GWF-(11,22,7)   20.17510    
         22         2         7                     1_GWF-(1,2,3)  0.6218619E-03                   1_GWF-(11,20,8)   16.97587    
         23         2         8                     1_GWF-(1,2,3)  0.5428347E-03                   1_GWF-(11,20,9)   13.25131    
         24         2         9                     1_GWF-(1,2,3)  0.2967760E-03                   1_GWF-(11,19,9)   9.321354    
         25         2        10                     1_GWF-(1,2,3)  0.2023009E-03                   1_GWF-(11,20,9)   5.645401    
         26         2        11                     1_GWF-(1,2,3) -0.3746214E-03                    1_GWF-(3,27,4)   2.731897    
         27         2        12                     1_GWF-(1,2,3) -0.5265019E-03                    1_GWF-(3,27,4)   2.066619    
         28         3         1                     1_GWF-(1,2,3) -0.2164416E-03                   1_GWF-(12,19,3)   1.907853    


 OUTER ITERATION SUMMARY
 ---------------------------------------------------------------------------------------
                       OUTER     INNER         MAXIMUM                    MAXIMUM CHANGE
                   ITERATION ITERATION          CHANGE                    MODEL-(CELLID)
 ---------------------------------------------------------------------------------------
 Linear Solver             1        16    -2.54069                        1_GWF-(4,2,20)
 Under-relaxation          1              -2.54069                        1_GWF-(4,2,20)
 Linear Solver             2         1    7.686596E-03                     1_GWF-(1,2,3)

 2 CALLS TO NUMERICAL SOLUTION IN TIME STEP 10 STRESS PERIOD 2
 17 TOTAL ITERATIONS

 INNER ITERATION SUMMARY
 --------------------------------------------------------------------------------------------------------------------------------
     TOTAL      OUTER     INNER                    MAXIMUM CHANGE        MAXIMUM                  MAXIMUM RESIDUAL        MAXIMUM
 ITERATION  ITERATION ITERATION                    MODEL-(CELLID)         CHANGE                    MODEL-(CELLID)       RESIDUAL
 --------------------------------------------------------------------------------------------------------------------------------
          1         1         1                     1_GWF-(1,2,3) -0.7327107E-01                    1_GWF-(7,9,27)   609.5160    
          2         1         2                     1_GWF-(1,2,3) -0.9145160                        1_GWF-(6,6,28)   1545.758    
          3         1         3                     1_GWF-(1,2,3) -0.4221317                        1_GWF-(6,6,28)   1233.078    
          4         1         4                     1_GWF-(1,2,3) -0.4240573                        1_GWF-(8,8,26)  -912.4124    
          5         1         5                     1_GWF-(1,2,3) -0.1514672                        1_GWF-(7,9,27)  -651.5131    
          6         1         6                     1_GWF-(1,2,3)  0.2505729                         1_GWF-(9,7,3)  -2389.263    
          7         1         7                     1_GWF-(1,2,3) -0.2535706                        1_GWF-(7,9,27)  -258.8971    
          8         1         8                     1_GWF-(1,2,3) -0.1558699E-02                    1_GWF-(6,4,31)   120.3258    
          9         1         9                     1_GWF-(1,2,3)  0.1822498E-01                    1_GWF-(6,7,27)  -92.94615    
         10         1        10                     1_GWF-(1,2,3) -0.3003795E-02                    1_GWF-(6,3,33)   77.94156    
         11         1        11                     1_GWF-(1,2,3)  0.1770782E-01                    1_GWF-(6,4,33)   56.13701    
         12         1        12                     1_GWF-(1,2,3)  0.2750748E-01                   1_GWF-(6,25,33)  -19.23719    
         13         1        13                     1_GWF-(1,2,3)  0.1121338E-01                   1_GWF-(6,26,33)  -16.05935    
         14         1        14                     1_GWF-(1,2,3)  0.1523592E-01                    1_GWF-(6,6,27)   18.30913    
         15         1        15                     1_GWF-(1,2,3)  0.2055331E-01                    1_GWF-(6,6,27)   14.63414    
         16         1        16                     1_GWF-(1,2,3)  0.1735753E-02                    1_GWF-(6,6,28)   7.988205    
         17         2         1                     1_GWF-(1,2,3)  0.7686596E-02                    1_GWF-(10,5,6)  -8.492151    
1
                            STRESS PERIOD NO.    3, LENGTH =   183.0000    
                            -----------------------------------------------

                              NUMBER OF TIME STEPS =     5

                               MULTIPLIER FOR DELT =     1.500

                            INITIAL TIME STEP SIZE =   13.87678    


 OUTER ITERATION SUMMARY
 ---------------------------------------------------------------------------------------
                       OUTER     INNER         MAXIMUM                    MAXIMUM CHANGE
                   ITERATION ITERATION          CHANGE                    MODEL-(CELLID)
 ---------------------------------------------------------------------------------------
 Linear Solver             1         3   -0.366935                        1_GWF-(1,19,5)
 Under-relaxation          1             -0.366935                        1_GWF-(1,19,5)
 Linear Solver             2         1   -1.124875E-03                   1_GWF-(12,17,6)

 2 CALLS TO NUMERICAL SOLUTION IN TIME STEP 1 STRESS PERIOD 3
 4 TOTAL ITERATIONS

 INNER ITERATION SUMMARY
 --------------------------------------------------------------------------------------------------------------------------------
     TOTAL      OUTER     INNER                    MAXIMUM CHANGE        MAXIMUM                  MAXIMUM RESIDUAL        MAXIMUM
 ITERATION  ITERATION ITERATION                    MODEL-(CELLID)         CHANGE                    MODEL-(CELLID)       RESIDUAL
 --------------------------------------------------------------------------------------------------------------------------------
          1         1         1                     1_GWF-(1,2,3) -0.4041240E-01                   1_GWF-(11,16,8)   277.9730    
          2         1         2                     1_GWF-(1,2,3) -0.3804993E-02                   1_GWF-(11,16,8)   33.95845    
          3         1         3                     1_GWF-(1,2,3)  0.2522509E-03                   1_GWF-(11,17,8)   7.912496    
          4         2         1                     1_GWF-(1,2,3) -0.7721568E-04                   1_GWF-(11,17,8)   1.150729    


 OUTER ITERATION SUMMARY
 ---------------------------------------------------------------------------------------
                       OUTER     INNER         MAXIMUM                    MAXIMUM CHANGE
                   ITERATION ITERATION          CHANGE                    MODEL-(CELLID)
 ---------------------------------------------------------------------------------------
 Linear Solver             1         3   -0.338255                        1_GWF-(1,19,5)
 Under-relaxation          1             -0.338255                        1_GWF-(1,19,5)
 Linear Solver             2         1   -5.231979E-04                   1_GWF-(12,20,8)

 2 CALLS TO NUMERICAL SOLUTION IN TIME STEP 2 STRESS PERIOD 3
 4 TOTAL ITERATIONS

 INNER ITERATION SUMMARY
 --------------------------------------------------------------------------------------------------------------------------------
     TOTAL      OUTER     INNER                    MAXIMUM CHANGE        MAXIMUM                  MAXIMUM RESIDUAL        MAXIMUM
 ITERATION  ITERATION ITERATION                    MODEL-(CELLID)         CHANGE                    MODEL-(CELLID)       RESIDUAL
 --------------------------------------------------------------------------------------------------------------------------------
          1         1         1                     1_GWF-(1,2,3) -0.7286865E-01                   1_GWF-(12,18,4)   296.9199    
          2         1         2                     1_GWF-(1,2,3) -0.8758361E-03                    1_GWF-(10,9,5)   40.15410    
          3         1         3                     1_GWF-(1,2,3) -0.9046456E-03                   1_GWF-(11,22,6)   3.521364    
          4         2         1                     1_GWF-(1,2,3) -0.6889579E-04                   1_GWF-(11,20,7)   1.388661    


 OUTER ITERATION SUMMARY
 ---------------------------------------------------------------------------------------
                       OUTER     INNER         MAXIMUM                    MAXIMUM CHANGE
                   ITERATION ITERATION          CHANGE                    MODEL-(CELLID)
 ---------------------------------------------------------------------------------------
 Linear Solver             1         3   -0.351454                        1_GWF-(1,19,5)
 Under-relaxation          1             -0.351454                        1_GWF-(1,19,5)
 Linear Solver             2         1   -1.999238E-03                  1_GWF-(11,24,14)

 2 CALLS TO NUMERICAL SOLUTION IN TIME STEP 3 STRESS PERIOD 3
 4 TOTAL ITERATIONS

 INNER ITERATION SUMMARY
 --------------------------------------------------------------------------------------------------------------------------------
     TOTAL      OUTER     INNER                    MAXIMUM CHANGE        MAXIMUM                  MAXIMUM RESIDUAL        MAXIMUM
 ITERATION  ITERATION ITERATION                    MODEL-(CELLID)         CHANGE                    MODEL-(CELLID)       RESIDUAL
 --------------------------------------------------------------------------------------------------------------------------------
          1         1         1                     1_GWF-(1,2,3) -0.1108043                       1_GWF-(12,18,4)   262.8745    
          2         1         2                     1_GWF-(1,2,3)  0.1543205E-02                    1_GWF-(10,9,4)  -90.61385    
          3         1         3                     1_GWF-(1,2,3) -0.2835826E-02                  1_GWF-(11,19,11)   8.971597    
          4         2         1                     1_GWF-(1,2,3) -0.5592125E-03                   1_GWF-(11,21,7)   2.468783    


 OUTER ITERATION SUMMARY
 ---------------------------------------------------------------------------------------
                       OUTER     INNER         MAXIMUM                    MAXIMUM CHANGE
                   ITERATION ITERATION          CHANGE                    MODEL-(CELLID)
 ---------------------------------------------------------------------------------------
 Linear Solver             1         4   -0.432800                        1_GWF-(1,17,5)
 Under-relaxation          1             -0.432800                        1_GWF-(1,17,5)
 Linear Solver             2         1   -5.880917E-04                    1_GWF-(10,4,5)

 2 CALLS TO NUMERICAL SOLUTION IN TIME STEP 4 STRESS PERIOD 3
 5 TOTAL ITERATIONS

 INNER ITERATION SUMMARY
 --------------------------------------------------------------------------------------------------------------------------------
     TOTAL      OUTER     INNER                    MAXIMUM CHANGE        MAXIMUM                  MAXIMUM RESIDUAL        MAXIMUM
 ITERATION  ITERATION ITERATION                    MODEL-(CELLID)         CHANGE                    MODEL-(CELLID)       RESIDUAL
 --------------------------------------------------------------------------------------------------------------------------------
[...]
          3         1         3                   1_GWF-(1,21,10)  0.6745099E-04                   1_GWF-(11,22,7)   23.45565    
          4         1         4                   1_GWF-(1,21,10) -0.4459291E-03                   1_GWF-(11,22,7)   9.098730    
          5         2         1                    1_GWF-(1,22,8) -0.1491285E-02                   1_GWF-(11,22,7)   5.242423    
1
                            STRESS PERIOD NO.   18, LENGTH =   182.0000    
                            -----------------------------------------------

                              NUMBER OF TIME STEPS =     5

                               MULTIPLIER FOR DELT =     1.500

                            INITIAL TIME STEP SIZE =   13.80095    


 OUTER ITERATION SUMMARY
 ---------------------------------------------------------------------------------------
                       OUTER     INNER         MAXIMUM                    MAXIMUM CHANGE
                   ITERATION ITERATION          CHANGE                    MODEL-(CELLID)
 ---------------------------------------------------------------------------------------
 Linear Solver             1         3    0.163441                        1_GWF-(1,20,5)
 Under-relaxation          1              0.163441                        1_GWF-(1,20,5)
 Linear Solver             2         1   -3.070785E-04                   1_GWF-(1,25,13)

 2 CALLS TO NUMERICAL SOLUTION IN TIME STEP 1 STRESS PERIOD 18
 4 TOTAL ITERATIONS

 INNER ITERATION SUMMARY
 --------------------------------------------------------------------------------------------------------------------------------
     TOTAL      OUTER     INNER                    MAXIMUM CHANGE        MAXIMUM                  MAXIMUM RESIDUAL        MAXIMUM
 ITERATION  ITERATION ITERATION                    MODEL-(CELLID)         CHANGE                    MODEL-(CELLID)       RESIDUAL
 --------------------------------------------------------------------------------------------------------------------------------
          1         1         1                     1_GWF-(1,2,5) -0.2001457E-01                   1_GWF-(11,17,9)  -136.5180    
          2         1         2                    1_GWF-(1,21,4)  0.1235639E-01                   1_GWF-(11,17,9)   9.414942    
          3         1         3                     1_GWF-(1,8,3) -0.4814161E-03                   1_GWF-(11,21,7)  -1.406914    
          4         2         1                   1_GWF-(1,21,11)  0.5312040E-04                   1_GWF-(11,21,7) -0.2554881    


 OUTER ITERATION SUMMARY
 ---------------------------------------------------------------------------------------
                       OUTER     INNER         MAXIMUM                    MAXIMUM CHANGE
                   ITERATION ITERATION          CHANGE                    MODEL-(CELLID)
 ---------------------------------------------------------------------------------------
 Linear Solver             1         3    0.167111                        1_GWF-(2,28,3)
 Under-relaxation          1              0.167111                        1_GWF-(2,28,3)
 Linear Solver             2         1    3.328950E-04                   1_GWF-(11,20,7)

 2 CALLS TO NUMERICAL SOLUTION IN TIME STEP 2 STRESS PERIOD 18
 4 TOTAL ITERATIONS

 INNER ITERATION SUMMARY
 --------------------------------------------------------------------------------------------------------------------------------
     TOTAL      OUTER     INNER                    MAXIMUM CHANGE        MAXIMUM                  MAXIMUM RESIDUAL        MAXIMUM
 ITERATION  ITERATION ITERATION                    MODEL-(CELLID)         CHANGE                    MODEL-(CELLID)       RESIDUAL
 --------------------------------------------------------------------------------------------------------------------------------
          1         1         1                   1_GWF-(1,21,11)  0.7133874E-02                   1_GWF-(12,18,4)  -141.8334    
          2         1         2                   1_GWF-(1,21,11)  0.4810091E-02                   1_GWF-(11,20,7)  -17.29591    
          3         1         3                   1_GWF-(1,21,11)  0.6046650E-03                   1_GWF-(11,20,7)  -3.142664    
          4         2         1                   1_GWF-(1,21,11)  0.7061426E-04                   1_GWF-(11,20,7) -0.9639926    


 OUTER ITERATION SUMMARY
 ---------------------------------------------------------------------------------------
                       OUTER     INNER         MAXIMUM                    MAXIMUM CHANGE
                   ITERATION ITERATION          CHANGE                    MODEL-(CELLID)
 ---------------------------------------------------------------------------------------
 Linear Solver             1         3    0.179967                        1_GWF-(2,28,3)
 Under-relaxation          1              0.179967                        1_GWF-(2,28,3)
 Linear Solver             2         1    7.518101E-04                   1_GWF-(12,21,6)

 2 CALLS TO NUMERICAL SOLUTION IN TIME STEP 3 STRESS PERIOD 18
 4 TOTAL ITERATIONS

 INNER ITERATION SUMMARY
 --------------------------------------------------------------------------------------------------------------------------------
     TOTAL      OUTER     INNER                    MAXIMUM CHANGE        MAXIMUM                  MAXIMUM RESIDUAL        MAXIMUM
 ITERATION  ITERATION ITERATION                    MODEL-(CELLID)         CHANGE                    MODEL-(CELLID)       RESIDUAL
 --------------------------------------------------------------------------------------------------------------------------------
          1         1         1                   1_GWF-(1,21,11)  0.2429983E-01                   1_GWF-(12,18,4)  -129.6693    
          2         1         2                   1_GWF-(1,21,11)  0.1288852E-01                    1_GWF-(12,6,7)  -28.64795    
          3         1         3                   1_GWF-(1,21,11) -0.8826422E-04                   1_GWF-(11,20,7)  -4.022660    
          4         2         1                   1_GWF-(1,21,11)  0.1990137E-03                   1_GWF-(11,22,7)  -2.222431    


 OUTER ITERATION SUMMARY
 ---------------------------------------------------------------------------------------
                       OUTER     INNER         MAXIMUM                    MAXIMUM CHANGE
                   ITERATION ITERATION          CHANGE                    MODEL-(CELLID)
 ---------------------------------------------------------------------------------------
 Linear Solver             1         3    0.211026                        1_GWF-(1,28,8)
 Under-relaxation          1              0.211026                        1_GWF-(1,28,8)
 Linear Solver             2         1    2.405112E-03                   1_GWF-(12,23,6)

 2 CALLS TO NUMERICAL SOLUTION IN TIME STEP 4 STRESS PERIOD 18
 4 TOTAL ITERATIONS

 INNER ITERATION SUMMARY
 --------------------------------------------------------------------------------------------------------------------------------
     TOTAL      OUTER     INNER                    MAXIMUM CHANGE        MAXIMUM                  MAXIMUM RESIDUAL        MAXIMUM
 ITERATION  ITERATION ITERATION                    MODEL-(CELLID)         CHANGE                    MODEL-(CELLID)       RESIDUAL
 --------------------------------------------------------------------------------------------------------------------------------
          1         1         1                   1_GWF-(1,21,11)  0.4267945E-01                    1_GWF-(2,28,3)  -151.3544    
          2         1         2                   1_GWF-(1,21,11)  0.2820928E-01                   1_GWF-(6,26,29)   38.26304    
          3         1         3                   1_GWF-(1,21,11)  0.1816118E-03                   1_GWF-(11,22,7)  -8.979929    
          4         2         1                   1_GWF-(1,21,11)  0.6574803E-03                    1_GWF-(6,8,28)   2.803510    


 OUTER ITERATION SUMMARY
 ---------------------------------------------------------------------------------------
                       OUTER     INNER         MAXIMUM                    MAXIMUM CHANGE
                   ITERATION ITERATION          CHANGE                    MODEL-(CELLID)
 ---------------------------------------------------------------------------------------
 Linear Solver             1         4    0.265190                        1_GWF-(1,28,8)
 Under-relaxation          1              0.265190                        1_GWF-(1,28,8)
 Linear Solver             2         1    1.164248E-03                   1_GWF-(11,22,7)

 2 CALLS TO NUMERICAL SOLUTION IN TIME STEP 5 STRESS PERIOD 18
 5 TOTAL ITERATIONS

 INNER ITERATION SUMMARY
 --------------------------------------------------------------------------------------------------------------------------------
     TOTAL      OUTER     INNER                    MAXIMUM CHANGE        MAXIMUM                  MAXIMUM RESIDUAL        MAXIMUM
 ITERATION  ITERATION ITERATION                    MODEL-(CELLID)         CHANGE                    MODEL-(CELLID)       RESIDUAL
 --------------------------------------------------------------------------------------------------------------------------------
          1         1         1                   1_GWF-(1,21,11)  0.5783230E-01                    1_GWF-(2,27,8)  -152.1160    
          2         1         2                   1_GWF-(1,21,11)  0.5950804E-01                   1_GWF-(6,26,29)   46.28274    
          3         1         3                   1_GWF-(1,21,11)  0.2110757E-03                   1_GWF-(11,22,7)  -19.12958    
          4         1         4                   1_GWF-(1,21,11)  0.1439676E-02                    1_GWF-(6,8,28)   6.894815    
          5         2         1                   1_GWF-(1,21,11)  0.3819276E-03                    1_GWF-(6,8,28)   4.062653    
1
                            STRESS PERIOD NO.   19, LENGTH =   183.0000    
                            -----------------------------------------------

                              NUMBER OF TIME STEPS =     5

                               MULTIPLIER FOR DELT =     1.500

                            INITIAL TIME STEP SIZE =   13.87678    


 OUTER ITERATION SUMMARY
 ---------------------------------------------------------------------------------------
                       OUTER     INNER         MAXIMUM                    MAXIMUM CHANGE
                   ITERATION ITERATION          CHANGE                    MODEL-(CELLID)
 ---------------------------------------------------------------------------------------
 Linear Solver             1         3   -0.201812                        1_GWF-(1,28,3)
 Under-relaxation          1             -0.201812                        1_GWF-(1,28,3)
 Linear Solver             2         1    2.148416E-04                    1_GWF-(2,28,3)

 2 CALLS TO NUMERICAL SOLUTION IN TIME STEP 1 STRESS PERIOD 19
 4 TOTAL ITERATIONS

 INNER ITERATION SUMMARY
 --------------------------------------------------------------------------------------------------------------------------------
     TOTAL      OUTER     INNER                    MAXIMUM CHANGE        MAXIMUM                  MAXIMUM RESIDUAL        MAXIMUM
 ITERATION  ITERATION ITERATION                    MODEL-(CELLID)         CHANGE                    MODEL-(CELLID)       RESIDUAL
 --------------------------------------------------------------------------------------------------------------------------------
          1         1         1                     1_GWF-(1,2,3) -0.1536386E-01                   1_GWF-(11,18,7)   150.5055    
          2         1         2                   1_GWF-(1,21,10) -0.1133780E-01                   1_GWF-(11,28,3)  -9.202044    
          3         1         3                     1_GWF-(1,3,3)  0.2445114E-03                   1_GWF-(6,23,31)   1.369175    
          4         2         1                   1_GWF-(1,21,11) -0.7005704E-05                   1_GWF-(6,25,31)  0.2854055    


 OUTER ITERATION SUMMARY
 ---------------------------------------------------------------------------------------
                       OUTER     INNER         MAXIMUM                    MAXIMUM CHANGE
                   ITERATION ITERATION          CHANGE                    MODEL-(CELLID)
 ---------------------------------------------------------------------------------------
 Linear Solver             1         3   -0.226992                        1_GWF-(2,28,3)
 Under-relaxation          1             -0.226992                        1_GWF-(2,28,3)
 Linear Solver             2         1    3.259762E-04                   1_GWF-(2,24,13)

 2 CALLS TO NUMERICAL SOLUTION IN TIME STEP 2 STRESS PERIOD 19
 4 TOTAL ITERATIONS

 INNER ITERATION SUMMARY
 --------------------------------------------------------------------------------------------------------------------------------
     TOTAL      OUTER     INNER                    MAXIMUM CHANGE        MAXIMUM                  MAXIMUM RESIDUAL        MAXIMUM
 ITERATION  ITERATION ITERATION                    MODEL-(CELLID)         CHANGE                    MODEL-(CELLID)       RESIDUAL
 --------------------------------------------------------------------------------------------------------------------------------
          1         1         1                   1_GWF-(1,21,11) -0.3367341E-01                   1_GWF-(11,21,7)   161.3675    
          2         1         2                   1_GWF-(1,21,11) -0.8273877E-02                   1_GWF-(12,16,5)   21.06768    
          3         1         3                   1_GWF-(1,21,11) -0.9650556E-04                   1_GWF-(6,24,32)   2.619029    
          4         2         1                   1_GWF-(1,21,11) -0.3481767E-04                   1_GWF-(6,24,32)  0.8894398    


 OUTER ITERATION SUMMARY
 ---------------------------------------------------------------------------------------
                       OUTER     INNER         MAXIMUM                    MAXIMUM CHANGE
                   ITERATION ITERATION          CHANGE                    MODEL-(CELLID)
 ---------------------------------------------------------------------------------------
 Linear Solver             1         3   -0.256869                        1_GWF-(1,28,3)
 Under-relaxation          1             -0.256869                        1_GWF-(1,28,3)
 Linear Solver             2         1   -7.692474E-04                  1_GWF-(11,24,14)

 2 CALLS TO NUMERICAL SOLUTION IN TIME STEP 3 STRESS PERIOD 19
 4 TOTAL ITERATIONS

 INNER ITERATION SUMMARY
 --------------------------------------------------------------------------------------------------------------------------------
     TOTAL      OUTER     INNER                    MAXIMUM CHANGE        MAXIMUM                  MAXIMUM RESIDUAL        MAXIMUM
 ITERATION  ITERATION ITERATION                    MODEL-(CELLID)         CHANGE                    MODEL-(CELLID)       RESIDUAL
 --------------------------------------------------------------------------------------------------------------------------------
          1         1         1                   1_GWF-(1,21,11) -0.5846002E-01                  1_GWF-(11,18,10)   142.2996    
          2         1         2                   1_GWF-(1,21,11) -0.2183168E-01                    1_GWF-(12,6,7)   39.95973    
          3         1         3                   1_GWF-(1,21,11)  0.7107064E-03                   1_GWF-(11,20,7)   4.484313    
          4         2         1                   1_GWF-(1,21,11) -0.7404806E-04                   1_GWF-(6,23,33)   2.088428    


 OUTER ITERATION SUMMARY
 ---------------------------------------------------------------------------------------
                       OUTER     INNER         MAXIMUM                    MAXIMUM CHANGE
                   ITERATION ITERATION          CHANGE                    MODEL-(CELLID)
 ---------------------------------------------------------------------------------------
 Linear Solver             1         4   -0.299871                        1_GWF-(2,28,3)
 Under-relaxation          1             -0.299871                        1_GWF-(2,28,3)
 Linear Solver             2         1   -5.517214E-04                  1_GWF-(11,26,34)

 2 CALLS TO NUMERICAL SOLUTION IN TIME STEP 4 STRESS PERIOD 19
 5 TOTAL ITERATIONS

 INNER ITERATION SUMMARY
 --------------------------------------------------------------------------------------------------------------------------------
     TOTAL      OUTER     INNER                    MAXIMUM CHANGE        MAXIMUM                  MAXIMUM RESIDUAL        MAXIMUM
 ITERATION  ITERATION ITERATION                    MODEL-(CELLID)         CHANGE                    MODEL-(CELLID)       RESIDUAL
 --------------------------------------------------------------------------------------------------------------------------------
          1         1         1                   1_GWF-(1,21,11) -0.8395466E-01                  1_GWF-(11,18,10)   163.1786    
          2         1         2                   1_GWF-(1,21,11) -0.5096756E-01                    1_GWF-(12,6,7)   49.30508    
          3         1         3                   1_GWF-(1,21,11) -0.1843844E-03                   1_GWF-(11,21,7)   10.53614    
          4         1         4                   1_GWF-(1,21,11) -0.2639299E-03                    1_GWF-(6,8,28)   3.832701    
          5         2         1                   1_GWF-(1,21,11) -0.1011421E-03                    1_GWF-(6,8,28)   2.038983    


 OUTER ITERATION SUMMARY
 ---------------------------------------------------------------------------------------
                       OUTER     INNER         MAXIMUM                    MAXIMUM CHANGE
                   ITERATION ITERATION          CHANGE                    MODEL-(CELLID)
 ---------------------------------------------------------------------------------------
 Linear Solver             1         5   -0.364977                        1_GWF-(1,28,3)
 Under-relaxation          1             -0.364977                        1_GWF-(1,28,3)
 Linear Solver             2         1    8.007965E-04                    1_GWF-(12,6,3)

 2 CALLS TO NUMERICAL SOLUTION IN TIME STEP 5 STRESS PERIOD 19
 6 TOTAL ITERATIONS

 INNER ITERATION SUMMARY
 --------------------------------------------------------------------------------------------------------------------------------
     TOTAL      OUTER     INNER                    MAXIMUM CHANGE        MAXIMUM                  MAXIMUM RESIDUAL        MAXIMUM
 ITERATION  ITERATION ITERATION                    MODEL-(CELLID)         CHANGE                    MODEL-(CELLID)       RESIDUAL
 --------------------------------------------------------------------------------------------------------------------------------
          1         1         1                   1_GWF-(1,21,11) -0.1071439                      1_GWF-(11,18,10)   219.0712    
          2         1         2                   1_GWF-(1,21,12) -0.6929904E-01                   1_GWF-(6,27,29)  -108.7679    
          3         1         3                   1_GWF-(1,21,12)  0.5272159E-02                   1_GWF-(11,20,8)   22.94378    
          4         1         4                   1_GWF-(1,21,11)  0.2404891E-02                     1_GWF-(9,4,5)   19.28173    
          5         1         5                   1_GWF-(1,21,11) -0.1716889E-02                     1_GWF-(9,3,5)   4.186391    
          6         2         1                   1_GWF-(1,21,11) -0.2001190E-03                   1_GWF-(11,22,7)  -1.807460    

 INFORMATION ON VARIABLES STORED IN THE MEMORY MANAGER
 
 Number of allocated integer variables:   898376
 Number of allocated real variables:    750087
 Allocated memory in megabytes:     9.59420    
 

 Run end date and time (yyyy/mm/dd hh:mm:ss): 2020/03/02  9:36:03
 Elapsed run time:  7.234 Seconds

 Normal termination of simulation.
