                                   MODFLOW 6
                U.S. GEOLOGICAL SURVEY MODULAR HYDROLOGIC MODEL
                            VERSION 6.0.4 03/13/2019

  MODFLOW 6 compiled Sep 10 2019 14:27:06 with GFORTRAN compiler (ver. 9.2.0)

This software has been approved for release by the U.S. Geological 
Survey (USGS). Although the software has been subjected to rigorous 
review, the USGS reserves the right to update the software as needed 
pursuant to further analysis and review. No warranty, expressed or 
implied, is made by the USGS or the U.S. Government as to the 
functionality of the software and related material nor shall the 
fact of release constitute any such warranty. Furthermore, the 
software is released on condition that neither the USGS nor the U.S. 
Government shall be held liable for any damages resulting from its 
authorized or unauthorized use. Also refer to the USGS Water 
Resources Software User Rights Notice for complete use, copyright, 
and distribution information.


System command used to initiate simulation:
mf6

MODFLOW was compiled using uniform precision.
Real Variables
  PRECISION: 15
  KIND: 8
  TINY (smallest non-zero value):    2.225074-308
  HUGE (largest value):    1.797693+308
Integer Variables
  KIND: 4
  HUGE (largest value): 2147483647
  BIT_SIZE: 32


 OPENED mfsim.nam
 FILE TYPE:NAM   UNIT 1001   STATUS:OLD                 
 FORMAT:FORMATTED              ACCESS:SEQUENTIAL          
 ACTION:READ                


 READING SIMULATION OPTIONS
 END OF SIMULATION OPTIONS

 READING SIMULATION TIMING

 OPENED shellmound.tdis
 FILE TYPE:TDIS   UNIT 1002   STATUS:OLD                 
 FORMAT:FORMATTED              ACCESS:SEQUENTIAL          
 ACTION:READ                


 TDIS -- TEMPORAL DISCRETIZATION PACKAGE,
 VERSION 1 : 11/13/2014 - INPUT READ FROM UNIT 1002
 PROCESSING TDIS OPTIONS
    SIMULATION TIME UNIT IS DAYS
    SIMULATION STARTING DATE AND TIME IS 2008-10-01                    
 END OF TDIS OPTIONS
 PROCESSING TDIS DIMENSIONS
   17 STRESS PERIOD(S) IN SIMULATION
 END OF TDIS DIMENSIONS
 PROCESSING TDIS PERIODDATA


 STRESS PERIOD     LENGTH       TIME STEPS     MULTIPLIER FOR DELT
 ----------------------------------------------------------------------------
        1         1.000000          1                    1.000
        2         182.0000         15                    1.500
        3         183.0000         15                    1.500
        4         182.0000         15                    1.500
        5         183.0000         15                    1.500
        6         182.0000         15                    1.500
        7         183.0000         15                    1.500
        8         183.0000         15                    1.500
        9         183.0000         15                    1.500
       10         182.0000         15                    1.500
       11         183.0000         15                    1.500
       12         182.0000         15                    1.500
       13         183.0000         15                    1.500
       14         182.0000         15                    1.500
       15         183.0000         15                    1.500
       16         183.0000         15                    1.500
       17         183.0000         15                    1.500
 END OF TDIS PERIODDATA
 END OF SIMULATION TIMING

 READING SIMULATION MODELS
    GWF6 model SHELLMOUND will be created as model 1
 END OF SIMULATION MODELS

 READING SIMULATION EXCHANGES
 END OF SIMULATION EXCHANGES

 READING SOLUTIONGROUP

 Creating solution: SLN_1           

 OPENED shellmound.ims
 FILE TYPE:IMS   UNIT 1012   STATUS:OLD                 
 FORMAT:FORMATTED              ACCESS:SEQUENTIAL          
 ACTION:READ                

 END OF SIMULATION SOLUTIONGROUP

 IMS -- ITERATIVE MODEL SOLUTION PACKAGE, VERSION 6, 4/28/2017
         INPUT READ FROM UNIT 1012

 PROCESSING IMS OPTIONS
 MODERATE OPTION:
 DEFAULT SOLVER INPUT VALUES REFLECT MODERETELY NONLINEAR MODEL

 OPENED solver_out.csv
 FILE TYPE:CSV_OUTPUT   UNIT 1097   STATUS:REPLACE             
 FORMAT:FORMATTED              ACCESS:SEQUENTIAL          
 ACTION:READWRITE           

    CSV OUTPUT WILL BE SAVED TO FILE: solver_out.csv
    OPENED ON UNIT:    1097
 END OF IMS OPTIONS

 PROCESSING IMS NONLINEAR
 END OF IMS NONLINEAR DATA
 **UNDER-RELAXATION WILL BE USED***

 ***IMS LINEAR SOLVER WILL BE USED***

 IMSLINEAR -- UNSTRUCTURED LINEAR SOLUTION PACKAGE, VERSION 8, 04/28/2017

 PROCESSING LINEAR DATA
 END OF LINEAR DATA

 OUTER ITERATION CONVERGENCE CRITERION     (HCLOSE) =    0.100000E-02
 OUTER ITERATION BOUNDARY FLOW RESIDUAL (RCLOSEBND) =    0.100000E+00
 MAXIMUM NUMBER OF OUTER ITERATIONS        (MXITER) =      1000
 SOLVER PRINTOUT INDEX                     (IPRIMS) =         2
 NONLINEAR ITERATION METHOD            (NONLINMETH) =         3
 LINEAR SOLUTION METHOD                   (LINMETH) =         1
 UNDER-RELAXATION WEIGHT REDUCTION FACTOR   (THETA) =    0.900000E+00
 UNDER-RELAXATION WEIGHT INCREASE INCREMENT (KAPPA) =    0.100000E+00
 UNDER-RELAXATION PREVIOUS HISTORY FACTOR   (GAMMA) =    0.200000E+00
 UNDER-RELAXATIONMOMENTUM TERM          (AMOMENTUM) =    0.100000E-02
    MAXIMUM NUMBER OF BACKTRACKS         (NUMTRACK) =         0

       SOLUTION BY THE BICONJUGATE-GRADIENT STABILIZED METHOD
 ------------------------------------------------------------------
 MAXIMUM OF   1000 CALLS OF SOLUTION ROUTINE
 MAXIMUM OF    100 INTERNAL ITERATIONS PER CALL TO SOLUTION ROUTINE
 LINEAR ACCELERATION METHOD            = BCGS      
 MATRIX PRECONDITIONING TYPE           = MOD. INCOMPLETE LU  
 MATRIX SCALING APPROACH               = NO SCALING          
 MATRIX REORDERING APPROACH            = ORIGINAL ORDERING        
 NUMBER OF ORTHOGONALIZATIONS          =        0
 HEAD CHANGE CRITERION FOR CLOSURE     =    0.10000E-02
 RESIDUAL CHANGE CRITERION FOR CLOSURE =    0.10000E+00
 RESIDUAL CONVERGENCE OPTION           =        0
 RESIDUAL CONVERGENCE NORM             = INFINITY NORM   
 RELAXATION FACTOR                     =    0.97000E+00



1
                            STRESS PERIOD NO.    1, LENGTH =   1.000000    
                            -----------------------------------------------

                              NUMBER OF TIME STEPS =     1

                               MULTIPLIER FOR DELT =     1.000

                            INITIAL TIME STEP SIZE =   1.000000    



 PSEUDO-TRANSIENT CONTINUATION WILL BE APPLIED TO MODEL 1 ("SHELLMOUND") DURING THIS TIME STEP


 OUTER ITERATION SUMMARY
 ---------------------------------------------------------------------------------------
                       OUTER     INNER         MAXIMUM                    MAXIMUM CHANGE
                   ITERATION ITERATION          CHANGE                    MODEL-(CELLID)
 ---------------------------------------------------------------------------------------
 Linear Solver             1         3    -1.00770                        1_GWF-(4,2,32)
 Under-relaxation          1              -1.00770                        1_GWF-(4,2,32)
 Linear Solver             2         4    -1.55409                        1_GWF-(6,2,32)
 Under-relaxation          2              -1.55409                        1_GWF-(6,2,32)
 Linear Solver             3         4    -1.10458                        1_GWF-(6,2,32)
 Under-relaxation          3              -1.10458                        1_GWF-(6,2,32)
 Linear Solver             4         4   -0.867547                       1_GWF-(13,23,3)
 Under-relaxation          4             -0.867547                       1_GWF-(13,23,3)
 Linear Solver             5         4   -0.775699                       1_GWF-(13,23,3)
 Under-relaxation          5             -0.776491                       1_GWF-(13,23,3)
 Linear Solver             6         4   -0.702435                       1_GWF-(13,18,3)
 Under-relaxation          6             -0.703142                       1_GWF-(13,18,3)
 Linear Solver             7         5   -0.641721                       1_GWF-(13,18,3)
 Under-relaxation          7             -0.642376                       1_GWF-(13,18,3)
 Linear Solver             8         5   -0.558165                       1_GWF-(13,18,3)
 Under-relaxation          8             -0.558743                       1_GWF-(13,18,3)
 Linear Solver             9         5   -0.470975                        1_GWF-(13,2,8)
 Under-relaxation          9             -0.471449                        1_GWF-(13,2,8)
 Linear Solver            10         5   -0.464277                        1_GWF-(13,3,7)
 Under-relaxation         10             -0.464736                        1_GWF-(13,3,7)
 Linear Solver            11         6   -0.452956                        1_GWF-(13,3,7)
 Under-relaxation         11             -0.453410                        1_GWF-(13,3,7)
 Linear Solver            12         6   -0.432824                       1_GWF-(13,20,3)
 Under-relaxation         12             -0.433252                       1_GWF-(13,20,3)
 Linear Solver            13         6   -0.430693                       1_GWF-(13,20,3)
 Under-relaxation         13             -0.431123                       1_GWF-(13,20,3)
 Linear Solver            14         6   -0.413317                       1_GWF-(13,20,3)
 Under-relaxation         14             -0.413733                       1_GWF-(13,20,3)
 Linear Solver            15         6   -0.389507                        1_GWF-(13,2,9)
 Under-relaxation         15             -0.389900                        1_GWF-(13,2,9)
 Linear Solver            16         6   -0.361703                        1_GWF-(13,2,9)
 Under-relaxation         16             -0.362071                        1_GWF-(13,2,9)
 Linear Solver            17         6   -0.332029                        1_GWF-(13,7,6)
 Under-relaxation         17             -0.332359                        1_GWF-(13,7,6)
 Linear Solver            18         6   -0.333040                        1_GWF-(13,7,6)
 Under-relaxation         18             -0.333373                        1_GWF-(13,7,6)
 Linear Solver            19         7   -0.337887                        1_GWF-(13,8,6)
 Under-relaxation         19             -0.338222                        1_GWF-(13,8,6)
 Linear Solver            20         6   -0.338545                         1_GWF-(4,7,7)
 Under-relaxation         20             -0.338883                         1_GWF-(4,7,7)
 Linear Solver            21         7   -0.340981                         1_GWF-(1,8,7)
 Under-relaxation         21             -0.341321                         1_GWF-(1,8,7)
 Linear Solver            22         7   -0.335022                         1_GWF-(1,8,7)
 Under-relaxation         22             -0.335358                         1_GWF-(1,8,7)
 Linear Solver            23         7   -0.320699                         1_GWF-(1,8,7)
 Under-relaxation         23             -0.321023                         1_GWF-(1,8,7)
 Linear Solver            24         7   -0.319764                        1_GWF-(13,4,3)
 Under-relaxation         24             -0.320082                        1_GWF-(13,4,3)
 Linear Solver            25         7   -0.334184                        1_GWF-(13,3,3)
 Under-relaxation         25             -0.334514                        1_GWF-(13,3,3)
 Linear Solver            26         7   -0.349127                        1_GWF-(13,2,3)
 Under-relaxation         26             -0.349472                        1_GWF-(13,2,3)
 Linear Solver            27         8   -0.358194                        1_GWF-(13,2,3)
 Under-relaxation         27             -0.358550                        1_GWF-(13,2,3)
 Linear Solver            28         8   -0.359909                        1_GWF-(13,2,3)
 Under-relaxation         28             -0.360268                        1_GWF-(13,2,3)
 Linear Solver            29         7   -0.352095                        1_GWF-(13,2,3)
 Under-relaxation         29             -0.352449                        1_GWF-(13,2,3)
 Linear Solver            30         9   -0.344090                        1_GWF-(13,2,3)
 Under-relaxation         30             -0.344436                        1_GWF-(13,2,3)
 Linear Solver            31         8   -0.328709                        1_GWF-(13,2,3)
 Under-relaxation         31             -0.329042                        1_GWF-(13,2,3)
 Linear Solver            32         9   -0.311065                        1_GWF-(13,2,3)
 Under-relaxation         32             -0.311381                        1_GWF-(13,2,3)
 Linear Solver            33         8   -0.288684                        1_GWF-(13,2,3)
 Under-relaxation         33             -0.288978                        1_GWF-(13,2,3)
 Linear Solver            34         9   -0.262267                        1_GWF-(13,2,3)
 Under-relaxation         34             -0.262536                        1_GWF-(13,2,3)
 Linear Solver            35        11   -0.235433                        1_GWF-(13,2,3)
 Under-relaxation         35             -0.235675                        1_GWF-(13,2,3)
 Linear Solver            36         9   -0.221122                       1_GWF-(13,2,21)
 Under-relaxation         36             -0.221344                       1_GWF-(13,2,21)
 Linear Solver            37        10   -0.221098                       1_GWF-(13,2,21)
 Under-relaxation         37             -0.221319                       1_GWF-(13,2,21)
 Linear Solver            38        10   -0.211144                       1_GWF-(13,2,21)
 Under-relaxation         38             -0.211357                       1_GWF-(13,2,21)
 Linear Solver            39        11   -0.210380                       1_GWF-(13,2,21)
 Under-relaxation         39             -0.210590                       1_GWF-(13,2,21)
 Linear Solver            40        11   -0.201289                       1_GWF-(13,2,21)
 Under-relaxation         40             -0.201492                       1_GWF-(13,2,21)
 Linear Solver            41        11   -0.195890                       1_GWF-(13,2,21)
 Under-relaxation         41             -0.196088                       1_GWF-(13,2,21)
 Linear Solver            42        11   -0.191113                       1_GWF-(13,2,20)
 Under-relaxation         42             -0.191306                       1_GWF-(13,2,20)
 Linear Solver            43        11   -0.183865                       1_GWF-(13,2,20)
 Under-relaxation         43             -0.184051                       1_GWF-(13,2,20)
 Linear Solver            44        10   -0.173707                       1_GWF-(13,2,20)
 Under-relaxation         44             -0.173883                       1_GWF-(13,2,20)
 Linear Solver            45        11   -0.161402                       1_GWF-(13,2,20)
 Under-relaxation         45             -0.161567                       1_GWF-(13,2,20)
 Linear Solver            46        11   -0.232147                       1_GWF-(4,23,30)
 Under-relaxation         46             -0.232336                       1_GWF-(4,23,30)
 Linear Solver            47        11   -0.289840                       1_GWF-(4,23,29)
 Under-relaxation         47             -0.290079                       1_GWF-(4,23,29)
 Linear Solver            48        11   -0.230425                       1_GWF-(4,22,27)
 Under-relaxation         48             -0.230614                       1_GWF-(4,22,27)
 Linear Solver            49        11   -0.281475                       1_GWF-(4,21,27)
 Under-relaxation         49             -0.281708                       1_GWF-(4,21,27)
 Linear Solver            50        12   -0.201834                       1_GWF-(4,19,28)
 Under-relaxation         50             -0.202002                       1_GWF-(4,19,28)
 Linear Solver            51        10   -0.170141                       1_GWF-(4,18,29)
 Under-relaxation         51             -0.170285                       1_GWF-(4,18,29)
 Linear Solver            52        12   -0.172080                       1_GWF-(4,17,30)
 Under-relaxation         52             -0.172223                       1_GWF-(4,17,30)
 Linear Solver            53        13   -0.150465                       1_GWF-(4,16,31)
 Under-relaxation         53             -0.150589                       1_GWF-(4,16,31)
 Linear Solver            54        13   -0.159038                       1_GWF-(4,15,32)
 Under-relaxation         54             -0.159169                       1_GWF-(4,15,32)
 Linear Solver            55        13   -0.143898                       1_GWF-(4,13,32)
 Under-relaxation         55             -0.144017                       1_GWF-(4,13,32)
 Linear Solver            56        12   -0.133216                       1_GWF-(4,25,31)
 Under-relaxation         56             -0.133325                       1_GWF-(4,25,31)
 Linear Solver            57        11   -0.125760                       1_GWF-(13,2,22)
 Under-relaxation         57             -0.125887                       1_GWF-(13,2,22)
 Linear Solver            58        12   -0.194668                       1_GWF-(4,22,34)
 Under-relaxation         58             -0.194828                       1_GWF-(4,22,34)
 Linear Solver            59        14   -0.211636                       1_GWF-(4,20,34)
 Under-relaxation         59             -0.211811                       1_GWF-(4,20,34)
 Linear Solver            60        14   -0.151262                       1_GWF-(13,2,27)
 Under-relaxation         60             -0.151411                       1_GWF-(13,2,27)
 Linear Solver            61        14   -0.151458                       1_GWF-(13,2,31)
 Under-relaxation         61             -0.151608                       1_GWF-(13,2,31)
 Linear Solver            62        14   -0.161516                       1_GWF-(13,2,34)
 Under-relaxation         62             -0.161675                       1_GWF-(13,2,34)
 Linear Solver            63        12   -0.150863                       1_GWF-(13,2,34)
 Under-relaxation         63             -0.151015                       1_GWF-(13,2,34)
 Linear Solver            64        12   -0.145000                       1_GWF-(13,2,34)
 Under-relaxation         64             -0.145146                       1_GWF-(13,2,34)
 Linear Solver            65        14   -0.173087                       1_GWF-(13,2,34)
 Under-relaxation         65             -0.173254                       1_GWF-(13,2,34)
 Linear Solver            66        16   -0.213445                       1_GWF-(13,2,34)
 Under-relaxation         66             -0.213649                       1_GWF-(13,2,34)
 Linear Solver            67        17   -0.184147                       1_GWF-(13,2,34)
 Under-relaxation         67             -0.184335                       1_GWF-(13,2,34)
 Linear Solver            68        20   -0.182610                       1_GWF-(13,2,34)
 Under-relaxation         68             -0.182794                       1_GWF-(13,2,34)
 Linear Solver            69        21   -0.172028                       1_GWF-(13,2,34)
 Under-relaxation         69             -0.172202                       1_GWF-(13,2,34)
 Linear Solver            70        17   -0.162887                       1_GWF-(13,2,34)
 Under-relaxation         70             -0.163053                       1_GWF-(13,2,34)
 Linear Solver            71        17   -0.153954                       1_GWF-(13,2,34)
 Under-relaxation         71             -0.154110                       1_GWF-(13,2,34)
 Linear Solver            72        16   -0.145075                       1_GWF-(13,2,34)
 Under-relaxation         72             -0.145223                       1_GWF-(13,2,34)
 Linear Solver            73        18   -0.136214                       1_GWF-(13,2,34)
 Under-relaxation         73             -0.136352                       1_GWF-(13,2,34)
 Linear Solver            74        16   -0.127616                       1_GWF-(13,2,34)
 Under-relaxation         74             -0.127746                       1_GWF-(13,2,34)
 Linear Solver            75        16   -0.119380                       1_GWF-(13,2,34)
 Under-relaxation         75             -0.119501                       1_GWF-(13,2,34)
 Linear Solver            76        16   -0.111229                       1_GWF-(13,2,34)
 Under-relaxation         76             -0.111343                       1_GWF-(13,2,34)
 Linear Solver            77        17   -9.789990E-02                   1_GWF-(13,2,34)
 Under-relaxation         77             -9.800088E-02                   1_GWF-(13,2,34)
 Linear Solver            78        13   -6.255463E-02                   1_GWF-(13,2,34)
 Under-relaxation         78             -6.262487E-02                   1_GWF-(13,2,34)
 Linear Solver            79        14   -6.714917E-02                   1_GWF-(13,2,34)
 Under-relaxation         79             -6.721693E-02                   1_GWF-(13,2,34)
 Linear Solver            80        16   -7.451043E-02                   1_GWF-(13,2,34)
 Under-relaxation         80             -7.458359E-02                   1_GWF-(13,2,34)
 Linear Solver            81        13   -4.993506E-02                   1_GWF-(13,2,34)
 Under-relaxation         81             -4.998964E-02                   1_GWF-(13,2,34)
 Linear Solver            82        12   -5.343528E-02                   1_GWF-(4,16,14)
 Under-relaxation         82             -5.348471E-02                   1_GWF-(4,16,14)
 Linear Solver            83        12   -5.522147E-02                   1_GWF-(13,2,34)
 Under-relaxation         83             -5.527522E-02                   1_GWF-(13,2,34)
 Linear Solver            84        11   -5.283399E-02                   1_GWF-(13,2,34)
 Under-relaxation         84             -5.288701E-02                   1_GWF-(13,2,34)
 Linear Solver            85        11   -5.124505E-02                   1_GWF-(13,2,34)
 Under-relaxation         85             -5.129665E-02                   1_GWF-(13,2,34)
 Linear Solver            86        13   -4.573659E-02                   1_GWF-(13,2,34)
 Under-relaxation         86             -4.578350E-02                   1_GWF-(13,2,34)
 Linear Solver            87        12   -4.623673E-02                   1_GWF-(13,2,34)
 Under-relaxation         87             -4.628311E-02                   1_GWF-(13,2,34)
 Linear Solver            88        13   -4.341858E-02                   1_GWF-(13,2,34)
 Under-relaxation         88             -4.346259E-02                   1_GWF-(13,2,34)
 Linear Solver            89        13   -4.114858E-02                   1_GWF-(13,2,34)
 Under-relaxation         89             -4.119030E-02                   1_GWF-(13,2,34)
 Linear Solver            90        13   -3.835647E-02                   1_GWF-(4,15,13)
 Under-relaxation         90             -3.838964E-02                   1_GWF-(4,15,13)
 Linear Solver            91        13   -3.655989E-02                   1_GWF-(13,2,34)
 Under-relaxation         91             -3.659667E-02                   1_GWF-(13,2,34)
 Linear Solver            92        15   -3.408745E-02                   1_GWF-(13,2,34)
 Under-relaxation         92             -3.412208E-02                   1_GWF-(13,2,34)
 Linear Solver            93        15   -3.266877E-02                   1_GWF-(4,15,13)
 Under-relaxation         93             -3.270173E-02                   1_GWF-(4,15,13)
 Linear Solver            94        13   -3.127277E-02                   1_GWF-(4,15,13)
 Under-relaxation         94             -3.130438E-02                   1_GWF-(4,15,13)
 Linear Solver            95        13   -2.979185E-02                   1_GWF-(4,15,13)
 Under-relaxation         95             -2.982201E-02                   1_GWF-(4,15,13)
 Linear Solver            96        14   -3.103852E-02                   1_GWF-(13,2,34)
 Under-relaxation         96             -3.106916E-02                   1_GWF-(13,2,34)
 Linear Solver            97        15   -2.551905E-02                   1_GWF-(4,14,13)
 Under-relaxation         97             -2.554352E-02                   1_GWF-(4,14,13)
 Linear Solver            98        15   -2.509211E-02                   1_GWF-(4,14,13)
 Under-relaxation         98             -2.511708E-02                   1_GWF-(4,14,13)
 Linear Solver            99        16   -2.835570E-02                   1_GWF-(4,14,13)
 Under-relaxation         99             -2.838338E-02                   1_GWF-(4,14,13)
 Linear Solver           100        16   -2.509870E-02                   1_GWF-(4,14,13)
 Under-relaxation        100             -2.512431E-02                   1_GWF-(4,14,13)
 Linear Solver           101        15   -2.165322E-02                   1_GWF-(4,14,13)
 Under-relaxation        101             -2.167566E-02                   1_GWF-(4,14,13)
 Linear Solver           102        15   -2.650846E-02                   1_GWF-(4,14,12)
 Under-relaxation        102             -2.653119E-02                   1_GWF-(4,14,12)
 Linear Solver           103        16   -2.198244E-02                   1_GWF-(4,14,12)
 Under-relaxation        103             -2.200457E-02                   1_GWF-(4,14,12)
 Linear Solver           104        16   -2.050438E-02                   1_GWF-(4,14,12)
 Under-relaxation        104             -2.052521E-02                   1_GWF-(4,14,12)
 Linear Solver           105        16   -1.920538E-02                   1_GWF-(4,14,12)
 Under-relaxation        105             -1.922491E-02                   1_GWF-(4,14,12)
 Linear Solver           106        16   -1.788954E-02                   1_GWF-(4,14,12)
 Under-relaxation        106             -1.790776E-02                   1_GWF-(4,14,12)
 Linear Solver           107        16   -1.664658E-02                   1_GWF-(4,14,12)
 Under-relaxation        107             -1.666354E-02                   1_GWF-(4,14,12)
 Linear Solver           108        16   -1.550447E-02                   1_GWF-(4,14,12)
 Under-relaxation        108             -1.552026E-02                   1_GWF-(4,14,12)
 Linear Solver           109        16   -1.444084E-02                   1_GWF-(4,14,12)
 Under-relaxation        109             -1.445555E-02                   1_GWF-(4,14,12)
 Linear Solver           110        16   -1.342041E-02                   1_GWF-(4,14,12)
 Under-relaxation        110             -1.343409E-02                   1_GWF-(4,14,12)
 Linear Solver           111        16   -1.243096E-02                   1_GWF-(4,14,12)
 Under-relaxation        111             -1.244364E-02                   1_GWF-(4,14,12)
 Linear Solver           112        16   -1.147453E-02                   1_GWF-(4,14,12)
 Under-relaxation        112             -1.148624E-02                   1_GWF-(4,14,12)
 Linear Solver           113        16   -1.055134E-02                   1_GWF-(4,14,12)
 Under-relaxation        113             -1.056212E-02                   1_GWF-(4,14,12)
 Linear Solver           114        16   -9.660168E-03                   1_GWF-(4,14,12)
 Under-relaxation        114             -9.670053E-03                   1_GWF-(4,14,12)
 Linear Solver           115        13   -8.717256E-03                   1_GWF-(4,14,12)
 Under-relaxation        115             -8.726207E-03                   1_GWF-(4,14,12)
 Linear Solver           116        11   -8.274511E-03                   1_GWF-(4,14,11)
 Under-relaxation        116             -8.281670E-03                   1_GWF-(4,14,11)
 Linear Solver           117        11   -7.157756E-03                   1_GWF-(4,14,11)
 Under-relaxation        117             -7.164914E-03                   1_GWF-(4,14,11)
 Linear Solver           118        10   -6.389525E-03                   1_GWF-(4,14,11)
 Under-relaxation        118             -6.396069E-03                   1_GWF-(4,14,11)
 Linear Solver           119        10   -5.732583E-03                   1_GWF-(4,14,11)
 Under-relaxation        119             -5.738477E-03                   1_GWF-(4,14,11)
 Linear Solver           120        10   -5.112741E-03                   1_GWF-(4,14,11)
 Under-relaxation        120             -5.118010E-03                   1_GWF-(4,14,11)
 Linear Solver           121        10   -4.548299E-03                   1_GWF-(4,14,11)
 Under-relaxation        121             -4.552992E-03                   1_GWF-(4,14,11)
 Linear Solver           122        11   -4.053225E-03                   1_GWF-(4,14,11)
 Under-relaxation        122             -4.057406E-03                   1_GWF-(4,14,11)
 Linear Solver           123        11   -3.622826E-03                   1_GWF-(4,14,11)
 Under-relaxation        123             -3.626561E-03                   1_GWF-(4,14,11)
 Linear Solver           124        11   -3.261766E-03                   1_GWF-(4,14,11)
 Under-relaxation        124             -3.265122E-03                   1_GWF-(4,14,11)
 Linear Solver           125        11   -2.945585E-03                   1_GWF-(4,14,11)
 Under-relaxation        125             -2.948613E-03                   1_GWF-(4,14,11)
 Linear Solver           126        10   -2.666348E-03                   1_GWF-(4,14,11)
 Under-relaxation        126             -2.669087E-03                   1_GWF-(4,14,11)
 Linear Solver           127        11   -2.409455E-03                   1_GWF-(4,14,11)
 Under-relaxation        127             -2.411930E-03                   1_GWF-(4,14,11)
 Linear Solver           128         7   -2.105593E-03                   1_GWF-(4,14,11)
 Under-relaxation        128             -2.107772E-03                   1_GWF-(4,14,11)
 Linear Solver           129         8   -1.766456E-03                   1_GWF-(4,14,11)
 Under-relaxation        129             -1.768306E-03                   1_GWF-(4,14,11)
 Linear Solver           130         8   -1.534115E-03                   1_GWF-(4,14,11)
 Under-relaxation        130             -1.535712E-03                   1_GWF-(4,14,11)
 Linear Solver           131         7   -1.344498E-03                   1_GWF-(4,14,11)
 Under-relaxation        131             -1.345893E-03                   1_GWF-(4,14,11)
 Linear Solver           132         7   -1.166323E-03                   1_GWF-(4,14,11)
 Under-relaxation        132             -1.167535E-03                   1_GWF-(4,14,11)
 Linear Solver           133         6   -1.021495E-03                   1_GWF-(4,14,11)
 Under-relaxation        133             -1.022555E-03                   1_GWF-(4,14,11)
 Linear Solver           134         6   -8.960453E-04                   1_GWF-(4,14,11)
 Under-relaxation        134             -8.969740E-04                   1_GWF-(4,14,11)
 Linear Solver           135         6   -7.977235E-04                   1_GWF-(4,14,11)
 Under-relaxation        135             -7.985475E-04                   1_GWF-(4,14,11)
 Linear Solver           136         6   -7.201248E-04                   1_GWF-(4,14,11)
 Under-relaxation        136             -7.208657E-04                   1_GWF-(4,14,11)
 Linear Solver           137         5   -6.484975E-04                   1_GWF-(4,14,11)
 Under-relaxation        137             -6.491645E-04                   1_GWF-(4,14,11)
 Linear Solver           138         5   -5.701356E-04                   1_GWF-(4,14,11)
 Under-relaxation        138             -5.707251E-04                   1_GWF-(4,14,11)
 Linear Solver           139         5   -5.113438E-04                   1_GWF-(4,14,11)
 Under-relaxation        139             -5.118707E-04                   1_GWF-(4,14,11)
 Linear Solver           140         5   -4.676867E-04                   1_GWF-(4,14,11)
 Under-relaxation        140             -4.681663E-04                   1_GWF-(4,14,11)
 Linear Solver           141         4   -4.270022E-04                   1_GWF-(4,14,11)
 Under-relaxation        141             -4.274397E-04                   1_GWF-(4,14,11)
 Linear Solver           142         4   -3.825874E-04                   1_GWF-(4,14,11)
 Under-relaxation        142             -3.829810E-04                   1_GWF-(4,14,11)
 Linear Solver           143         4   -3.484584E-04                   1_GWF-(4,14,11)
 Under-relaxation        143             -3.488158E-04                   1_GWF-(4,14,11)
 Linear Solver           144         4   -3.221859E-04                   1_GWF-(4,14,11)
 Under-relaxation        144             -3.225152E-04                   1_GWF-(4,14,11)
 Linear Solver           145         3   -3.010210E-04                   1_GWF-(4,14,11)
 Under-relaxation        145             -3.013276E-04                   1_GWF-(4,14,11)
 Linear Solver           146         3   -2.616701E-04                   1_GWF-(4,14,11)
 Under-relaxation        146             -2.619408E-04                   1_GWF-(4,14,11)
 Linear Solver           147         3   -2.416065E-04                   1_GWF-(4,14,11)
 Under-relaxation        147             -2.418539E-04                   1_GWF-(4,14,11)
 Linear Solver           148         3   -2.248347E-04                   1_GWF-(4,14,11)
 Under-relaxation        148             -2.250640E-04                   1_GWF-(4,14,11)
 Linear Solver           149         2   -2.166028E-04                   1_GWF-(4,14,11)
 Under-relaxation        149             -2.168220E-04                   1_GWF-(4,14,11)
 Linear Solver           150         2   -1.766277E-04                   1_GWF-(4,14,11)
 Under-relaxation        150             -1.768128E-04                   1_GWF-(4,14,11)
 Linear Solver           151         2   -1.732433E-04                   1_GWF-(4,14,11)
 Under-relaxation        151             -1.734189E-04                   1_GWF-(4,14,11)
 Linear Solver           152         2   -1.579735E-04                   1_GWF-(4,14,11)
 Under-relaxation        152             -1.581350E-04                   1_GWF-(4,14,11)
 Linear Solver           153         2   -1.517129E-04                   1_GWF-(4,14,11)
 Under-relaxation        153             -1.518666E-04                   1_GWF-(4,14,11)
 Linear Solver           154         2   -1.417489E-04                   1_GWF-(4,14,11)
 Under-relaxation        154             -1.418931E-04                   1_GWF-(4,14,11)
 Linear Solver           155         2   -1.355573E-04                   1_GWF-(4,14,11)
 Under-relaxation        155             -1.356945E-04                   1_GWF-(4,14,11)
 Linear Solver           156         2   -1.282548E-04                   1_GWF-(4,14,11)
 Under-relaxation        156             -1.283849E-04                   1_GWF-(4,14,11)
 Linear Solver           157         2   -1.225586E-04                   1_GWF-(4,14,11)
 Under-relaxation        157             -1.226827E-04                   1_GWF-(4,14,11)
 Linear Solver           158         2   -1.169218E-04                   1_GWF-(4,14,11)
 Under-relaxation        158             -1.170401E-04                   1_GWF-(4,14,11)
 Linear Solver           159         2   -1.116325E-04                   1_GWF-(4,14,11)
 Under-relaxation        159             -1.117455E-04                   1_GWF-(4,14,11)
 Linear Solver           160         2   -1.071358E-04                   1_GWF-(4,14,11)
 Under-relaxation        160             -1.072441E-04                   1_GWF-(4,14,11)
 Linear Solver           161         2   -1.021727E-04                   1_GWF-(4,14,11)
 Under-relaxation        161             -1.022761E-04                   1_GWF-(4,14,11)
 Linear Solver           162         2   -9.852218E-05                   1_GWF-(4,14,11)
 Under-relaxation        162             -9.862168E-05                   1_GWF-(4,14,11)
 Linear Solver           163         2   -9.383480E-05                   1_GWF-(4,14,11)
 Under-relaxation        163             -9.392976E-05                   1_GWF-(4,14,11)
 Linear Solver           164         2   -9.084547E-05                   1_GWF-(4,14,11)
 Under-relaxation        164             -9.093714E-05                   1_GWF-(4,14,11)
 Linear Solver           165         2   -8.639837E-05                   1_GWF-(4,14,11)
 Under-relaxation        165             -8.648582E-05                   1_GWF-(4,14,11)
 Linear Solver           166         2   -8.394198E-05                   1_GWF-(4,14,11)
 Under-relaxation        166             -8.402663E-05                   1_GWF-(4,14,11)
 Linear Solver           167         2   -7.970805E-05                   1_GWF-(4,14,11)
 Under-relaxation        167             -7.978875E-05                   1_GWF-(4,14,11)
 Linear Solver           168         2   -7.768963E-05                   1_GWF-(4,14,11)
 Under-relaxation        168             -7.776792E-05                   1_GWF-(4,14,11)
 Linear Solver           169         2   -7.364703E-05                   1_GWF-(4,14,11)
 Under-relaxation        169             -7.372161E-05                   1_GWF-(4,14,11)
 Linear Solver           170         2   -7.199425E-05                   1_GWF-(4,14,11)
 Under-relaxation        170             -7.206676E-05                   1_GWF-(4,14,11)
 Linear Solver           171         2   -6.812606E-05                   1_GWF-(4,14,11)
 Under-relaxation        171             -6.819507E-05                   1_GWF-(4,14,11)
 Linear Solver           172         2   -6.678200E-05                   1_GWF-(4,14,11)
 Under-relaxation        172             -6.684923E-05                   1_GWF-(4,14,11)
 Linear Solver           173         2   -6.307489E-05                   1_GWF-(4,14,11)
 Under-relaxation        173             -6.313880E-05                   1_GWF-(4,14,11)
 Linear Solver           174         2   -6.199424E-05                   1_GWF-(4,14,11)
 Under-relaxation        174             -6.205662E-05                   1_GWF-(4,14,11)
 Linear Solver           175         2   -5.843762E-05                   1_GWF-(4,14,11)
 Under-relaxation        175             -5.849685E-05                   1_GWF-(4,14,11)
 Linear Solver           176         2   -5.758323E-05                   1_GWF-(4,14,11)
 Under-relaxation        176             -5.764114E-05                   1_GWF-(4,14,11)
 Linear Solver           177         2   -5.416893E-05                   1_GWF-(4,14,11)
 Under-relaxation        177             -5.422384E-05                   1_GWF-(4,14,11)
 Linear Solver           178         2   -5.351007E-05                   1_GWF-(4,14,11)
 Under-relaxation        178             -5.356386E-05                   1_GWF-(4,14,11)
 Linear Solver           179         2   -5.023129E-05                   1_GWF-(4,14,11)
 Under-relaxation        179             -5.028223E-05                   1_GWF-(4,14,11)
 Linear Solver           180         2   -4.974203E-05                   1_GWF-(4,14,11)
 Under-relaxation        180             -4.979201E-05                   1_GWF-(4,14,11)
 Linear Solver           181         2   -4.659341E-05                   1_GWF-(4,14,11)
 Under-relaxation        181             -4.664068E-05                   1_GWF-(4,14,11)
 Linear Solver           182         2   -4.625153E-05                   1_GWF-(4,14,11)
 Under-relaxation        182             -4.629798E-05                   1_GWF-(4,14,11)
 Linear Solver           183         2   -4.322856E-05                   1_GWF-(4,14,11)
 Under-relaxation        183             -4.327243E-05                   1_GWF-(4,14,11)
 Linear Solver           184         2   -4.301462E-05                   1_GWF-(4,14,11)
 Under-relaxation        184             -4.305781E-05                   1_GWF-(4,14,11)
 Linear Solver           185         2   -4.011328E-05                   1_GWF-(4,14,11)
 Under-relaxation        185             -4.015400E-05                   1_GWF-(4,14,11)
 Linear Solver           186         2   -4.001025E-05                   1_GWF-(4,14,11)
 Under-relaxation        186             -4.005040E-05                   1_GWF-(4,14,11)
 Linear Solver           187         2   -3.722718E-05                   1_GWF-(4,14,11)
 Under-relaxation        187             -3.726499E-05                   1_GWF-(4,14,11)
 Linear Solver           188         2   -3.721986E-05                   1_GWF-(4,14,11)
 Under-relaxation        188             -3.725720E-05                   1_GWF-(4,14,11)
 Linear Solver           189         2   -3.455216E-05                   1_GWF-(4,14,11)
 Under-relaxation        189             -3.458727E-05                   1_GWF-(4,14,11)
 Linear Solver           190         2   -3.462713E-05                   1_GWF-(4,14,11)
 Under-relaxation        190             -3.466186E-05                   1_GWF-(4,14,11)
 Linear Solver           191         2   -3.207209E-05                   1_GWF-(4,14,11)
 Under-relaxation        191             -3.210469E-05                   1_GWF-(4,14,11)
 Linear Solver           192         2   -3.221703E-05                   1_GWF-(4,14,11)
 Under-relaxation        192             -3.224932E-05                   1_GWF-(4,14,11)
 Linear Solver           193         2   -2.977191E-05                   1_GWF-(4,14,11)
 Under-relaxation        193             -2.980219E-05                   1_GWF-(4,14,11)
 Linear Solver           194         2   -2.997570E-05                   1_GWF-(4,14,11)
 Under-relaxation        194             -3.000574E-05                   1_GWF-(4,14,11)
 Linear Solver           195         2   -2.763822E-05                   1_GWF-(4,14,11)
 Under-relaxation        195             -2.766634E-05                   1_GWF-(4,14,11)
 Linear Solver           196         2   -2.789110E-05                   1_GWF-(4,14,11)
 Under-relaxation        196             -2.791903E-05                   1_GWF-(4,14,11)
 Linear Solver           197         2   -2.565895E-05                   1_GWF-(4,14,11)
 Under-relaxation        197             -2.568506E-05                   1_GWF-(4,14,11)
 Linear Solver           198         2   -2.595179E-05                   1_GWF-(4,14,11)
 Under-relaxation        198             -2.597777E-05                   1_GWF-(4,14,11)
 Linear Solver           199         2   -2.382277E-05                   1_GWF-(4,14,11)
 Under-relaxation        199             -2.384703E-05                   1_GWF-(4,14,11)
 Linear Solver           200         2   -2.414754E-05                   1_GWF-(4,14,11)
 Under-relaxation        200             -2.417171E-05                   1_GWF-(4,14,11)
 Linear Solver           201         2   -2.211916E-05                   1_GWF-(4,14,11)
 Under-relaxation        201             -2.214169E-05                   1_GWF-(4,14,11)
 Linear Solver           202         2   -2.246847E-05                   1_GWF-(4,14,11)
 Under-relaxation        202             -2.249095E-05                   1_GWF-(4,14,11)
 Linear Solver           203         2   -2.053848E-05                   1_GWF-(4,14,11)
 Under-relaxation        203             -2.055941E-05                   1_GWF-(4,14,11)
 Linear Solver           204         2   -2.090593E-05                   1_GWF-(4,14,11)
 Under-relaxation        204             -2.092684E-05                   1_GWF-(4,14,11)
 Linear Solver           205         2   -1.907194E-05                   1_GWF-(4,14,11)
 Under-relaxation        205             -1.909138E-05                   1_GWF-(4,14,11)
 Linear Solver           206         2   -1.945171E-05                   1_GWF-(4,14,11)
 Under-relaxation        206             -1.947116E-05                   1_GWF-(4,14,11)
 Linear Solver           207         2   -1.771131E-05                   1_GWF-(4,14,11)
 Under-relaxation        207             -1.772937E-05                   1_GWF-(4,14,11)
 Linear Solver           208         2   -1.809832E-05                   1_GWF-(4,14,11)
 Under-relaxation        208             -1.811641E-05                   1_GWF-(4,14,11)
 Linear Solver           209         2   -1.644881E-05                   1_GWF-(4,14,11)
 Under-relaxation        209             -1.646559E-05                   1_GWF-(4,14,11)
 Linear Solver           210         2   -1.683847E-05                   1_GWF-(4,14,11)
 Under-relaxation        210             -1.685530E-05                   1_GWF-(4,14,11)
 Linear Solver           211         2   -1.527710E-05                   1_GWF-(4,14,11)
 Under-relaxation        211             -1.529269E-05                   1_GWF-(4,14,11)
 Linear Solver           212         2   -1.566599E-05                   1_GWF-(4,14,11)
 Under-relaxation        212             -1.568164E-05                   1_GWF-(4,14,11)
 Linear Solver           213         1   -1.366879E-05                   1_GWF-(4,14,11)
 Under-relaxation        213             -1.368285E-05                   1_GWF-(4,14,11)
 Linear Solver           214         1   -5.447463E-06                  1_GWF-(10,17,10)
 Under-relaxation        214             -5.452158E-06                  1_GWF-(10,17,10)
 Linear Solver           215         1   -1.561805E-05                   1_GWF-(4,14,11)
 Under-relaxation        215             -1.563153E-05                   1_GWF-(4,14,11)
 Linear Solver           216         1   -1.091598E-05                  1_GWF-(10,17,10)
 Under-relaxation        216             -8.850442E-06                  1_GWF-(10,17,10)
 Linear Solver           217         1   -1.645480E-05                   1_GWF-(4,14,11)
 Under-relaxation        217             -1.334159E-05                   1_GWF-(4,14,11)
 Linear Solver           218         1   -8.488009E-06                  1_GWF-(11,17,11)

 218 CALLS TO NUMERICAL SOLUTION IN TIME STEP 1 STRESS PERIOD 1
 1697 TOTAL ITERATIONS

 INNER ITERATION SUMMARY
 --------------------------------------------------------------------------------------------------------------------------------
     TOTAL      OUTER     INNER                    MAXIMUM CHANGE        MAXIMUM                  MAXIMUM RESIDUAL        MAXIMUM
 ITERATION  ITERATION ITERATION                    MODEL-(CELLID)         CHANGE                    MODEL-(CELLID)       RESIDUAL
 --------------------------------------------------------------------------------------------------------------------------------
          1         1         1                     1_GWF-(1,2,3) -0.1576788E-01                    1_GWF-(5,3,34)  -218.7370    
          2         1         2                     1_GWF-(1,2,3)  0.5500366E-05                    1_GWF-(4,4,34)  0.2746036    
          3         1         3                     1_GWF-(1,2,3)  0.1298584E-07                    1_GWF-(4,4,34)  0.9037102E-03
          4         2         1                     1_GWF-(1,2,3) -0.4023297E-01                    1_GWF-(4,4,34)   1033.499    
          5         2         2                     1_GWF-(1,2,3)  0.4726290E-04                    1_GWF-(4,4,34)   10.40537    
          6         2         3                     1_GWF-(1,2,3)  0.1117684E-05                    1_GWF-(4,4,34)  0.1917089    
          7         2         4                     1_GWF-(1,2,3) -0.1534240E-08                    1_GWF-(4,4,34)  0.1065481E-02
          8         3         1                     1_GWF-(1,2,3) -0.4869074E-01                    1_GWF-(4,4,34)   822.9375    
          9         3         2                     1_GWF-(1,2,3)  0.9757589E-04                    1_GWF-(4,4,34)   18.99659    
         10         3         3                     1_GWF-(1,2,3)  0.2634882E-05                    1_GWF-(4,4,34)  0.6579866    
         11         3         4                     1_GWF-(1,2,3)  0.1138442E-07                    1_GWF-(4,4,34)  0.7654713E-02
         12         4         1                     1_GWF-(1,2,3) -0.5312562E-01                    1_GWF-(4,4,34)   393.2100    
         13         4         2                     1_GWF-(1,2,3)  0.1884670E-03                    1_GWF-(4,4,34)   25.10870    
         14         4         3                     1_GWF-(1,2,3)  0.2836395E-05                    1_GWF-(4,4,34)  0.3898697    
         15         4         4                     1_GWF-(1,2,3) -0.1284466E-07                    1_GWF-(4,4,34)  0.1076027E-01
         16         5         1                     1_GWF-(1,2,3) -0.5578171E-01                    1_GWF-(4,3,34)   367.8393    
         17         5         2                     1_GWF-(1,2,3)  0.3612612E-03                    1_GWF-(4,3,34)   17.32490    
         18         5         3                     1_GWF-(1,2,3)  0.1746336E-05                    1_GWF-(4,5,34)  0.4664019    
         19         5         4                     1_GWF-(1,2,3) -0.9214497E-07                    1_GWF-(4,3,34)  0.4715144E-02
         20         6         1                     1_GWF-(1,2,3) -0.5644789E-01                    1_GWF-(4,3,34)   479.7193    
         21         6         2                     1_GWF-(1,2,3)  0.6306059E-03                    1_GWF-(4,3,34)   33.29546    
         22         6         3                     1_GWF-(1,2,3)  0.8568596E-05                    1_GWF-(4,5,34)   1.011872    
         23         6         4                     1_GWF-(1,2,3) -0.4351316E-06                    1_GWF-(4,5,34)  0.6970772E-01
         24         7         1                     1_GWF-(1,2,3) -0.5431624E-01                    1_GWF-(4,3,34)   462.7948    
         25         7         2                     1_GWF-(1,2,3)  0.9672010E-03                    1_GWF-(5,3,34)   45.39517    
         26         7         3                     1_GWF-(1,2,3)  0.1472082E-04                    1_GWF-(4,5,34)   1.654174    
         27         7         4                     1_GWF-(1,2,3) -0.1555309E-05                    1_GWF-(4,5,34)  0.1898924    
         28         7         5                     1_GWF-(1,2,3) -0.1330792E-06                    1_GWF-(5,3,34)  0.7816314E-02
         29         8         1                     1_GWF-(1,2,3) -0.4887190E-01                    1_GWF-(4,3,34)   380.0946    
         30         8         2                     1_GWF-(1,2,3)  0.1239643E-02                    1_GWF-(5,3,34)   55.01667    
         31         8         3                     1_GWF-(1,2,3)  0.1178418E-04                    1_GWF-(4,5,34)   2.428714    
         32         8         4                     1_GWF-(1,2,3) -0.4614952E-05                    1_GWF-(4,5,34)  0.3594959    
         33         8         5                     1_GWF-(1,2,3) -0.4468104E-06                    1_GWF-(4,4,34) -0.1956702E-01
         34         9         1                     1_GWF-(1,2,3) -0.3979511E-01                    1_GWF-(5,3,34)   280.5944    
         35         9         2                     1_GWF-(1,2,3)  0.1235906E-02                    1_GWF-(5,3,34)   56.83237    
         36         9         3                     1_GWF-(1,2,3) -0.1469328E-04                    1_GWF-(4,5,34)   3.246163    
         37         9         4                     1_GWF-(1,2,3) -0.1075302E-04                    1_GWF-(4,5,34)  0.4487965    
         38         9         5                     1_GWF-(1,2,3) -0.1526979E-05                    1_GWF-(4,4,34) -0.5156694E-01
         39        10         1                     1_GWF-(1,2,3) -0.2783884E-01                    1_GWF-(5,3,34)   249.8859    
         40        10         2                     1_GWF-(1,2,3)  0.8238411E-03                    1_GWF-(5,3,34)   53.74603    
         41        10         3                     1_GWF-(1,2,3) -0.7176400E-04                    1_GWF-(4,5,34)   4.283258    
         42        10         4                     1_GWF-(1,2,3) -0.2238666E-04                    1_GWF-(4,5,34)  0.4838376    
         43        10         5                     1_GWF-(1,2,3) -0.3769016E-05                    1_GWF-(4,4,34) -0.9308085E-01
         44        11         1                     1_GWF-(1,2,3) -0.1465618E-01                    1_GWF-(5,3,34)   222.4770    
         45        11         2                     1_GWF-(1,2,3)  0.3334560E-04                    1_GWF-(5,3,34)   46.53448    
         46        11         3                     1_GWF-(1,2,3) -0.1632692E-03                    1_GWF-(4,4,34)  -5.129925    
         47        11         4                     1_GWF-(1,2,3) -0.3897280E-04                    1_GWF-(5,3,34)  0.4296174    
         48        11         5                     1_GWF-(1,2,3) -0.6568851E-05                    1_GWF-(4,4,34) -0.1198758    
         49        11         6                     1_GWF-(1,2,3) -0.6976576E-06                    1_GWF-(4,5,34)  0.9591816E-02
         50        12         1                     1_GWF-(1,2,3) -0.2706098E-02                     1_GWF-(5,3,7)   258.1986    
         51        12         2                     1_GWF-(1,2,4) -0.2618113E-02                    1_GWF-(5,3,34)   38.50276    
         52        12         3                     1_GWF-(1,2,3) -0.3132155E-03                    1_GWF-(4,4,34)  -7.089877    
         53        12         4                     1_GWF-(1,2,3) -0.6244982E-04                    1_GWF-(4,5,34)  0.4790263    
         54        12         5                     1_GWF-(1,2,3) -0.1093698E-04                    1_GWF-(4,5,34)  0.1158156    
         55        12         6                     1_GWF-(1,2,3) -0.1337785E-05                    1_GWF-(4,5,34)  0.1849002E-01
         56        13         1                     1_GWF-(1,2,3)  0.5905339E-02                     1_GWF-(5,3,7)   299.6209    
         57        13         2                     1_GWF-(1,2,4) -0.2994018E-02                    1_GWF-(5,3,34)   35.85904    
         58        13         3                     1_GWF-(1,2,3) -0.5082299E-03                    1_GWF-(4,4,34)  -5.047726    
         59        13         4                     1_GWF-(1,2,3) -0.7501105E-04                    1_GWF-(4,4,34) -0.6049926    
         60        13         5                     1_GWF-(1,2,3) -0.1559589E-04                    1_GWF-(4,5,34)  0.1335920    
         61        13         6                     1_GWF-(1,2,3) -0.7348554E-06                    1_GWF-(4,5,34)  0.4413018E-02
         62        14         1                     1_GWF-(1,2,3)  0.8905326E-02                     1_GWF-(5,3,7)   321.1806    
         63        14         2                     1_GWF-(1,2,3) -0.3912383E-02                    1_GWF-(4,4,34)  -31.49187    
         64        14         3                     1_GWF-(1,2,3) -0.3596718E-03                    1_GWF-(4,3,34)  -19.96747    
         65        14         4                     1_GWF-(1,2,3) -0.3979497E-03                    1_GWF-(4,5,34)  0.4126927    
         66        14         5                     1_GWF-(1,2,3) -0.1813003E-04                    1_GWF-(4,5,34)  0.1357426    
         67        14         6                     1_GWF-(1,2,3) -0.2223238E-05                    1_GWF-(4,4,34) -0.2528863E-01
         68        15         1                     1_GWF-(1,2,4) -0.2106010E-01                     1_GWF-(5,3,7)   324.7001    
         69        15         2                     1_GWF-(1,2,3) -0.5873605E-02                    1_GWF-(4,4,34)  -28.62215    
         70        15         3                     1_GWF-(1,2,3) -0.5428379E-03                    1_GWF-(4,4,34)  -8.333339    
         71        15         4                     1_GWF-(1,2,3) -0.8959562E-04                    1_GWF-(4,5,34)  0.9817423    
         72        15         5                     1_GWF-(1,2,3) -0.4385702E-05                    1_GWF-(4,4,34) -0.2160712    
         73        15         6                     1_GWF-(1,2,3) -0.9317575E-06                    1_GWF-(4,4,34)  0.6589043E-01
         74        16         1                     1_GWF-(1,2,4) -0.5125042E-01                     1_GWF-(5,3,7)   311.6749    
         75        16         2                     1_GWF-(1,2,4) -0.7617610E-02                    1_GWF-(4,3,34)   90.25512    
         76        16         3                     1_GWF-(1,2,4)  0.1834133E-02                    1_GWF-(4,4,34)  -8.109110    
         77        16         4                     1_GWF-(1,2,4) -0.1471555E-03                    1_GWF-(5,4,34)  -2.329688    
         78        16         5                     1_GWF-(1,2,3)  0.5961830E-04                    1_GWF-(4,5,34)  0.1711217    
         79        16         6                     1_GWF-(1,2,3) -0.3693079E-06                    1_GWF-(4,5,34)  0.8101981E-01
         80        17         1                     1_GWF-(1,2,3) -0.3080364E-01                     1_GWF-(7,3,7)   292.6763    
         81        17         2                     1_GWF-(1,2,3) -0.2856173E-02                    1_GWF-(5,2,34)   143.4087    
         82        17         3                     1_GWF-(1,2,3) -0.6690613E-02                   1_GWF-(5,24,33)  -3.830879    
         83        17         4                     1_GWF-(1,2,3) -0.1079655E-03                    1_GWF-(4,4,34)  -1.290603    
         84        17         5                     1_GWF-(1,2,3)  0.6467066E-05                    1_GWF-(5,4,34) -0.2616403    
         85        17         6                     1_GWF-(1,2,3) -0.2227724E-05                    1_GWF-(4,4,34) -0.1292716E-01
         86        18         1                     1_GWF-(1,2,3) -0.6155749E-01                     1_GWF-(7,3,7)   278.3984    
         87        18         2                     1_GWF-(1,2,3) -0.7444681E-02                   1_GWF-(5,16,32)   52.28985    
         88        18         3                     1_GWF-(1,2,3) -0.3338524E-02                    1_GWF-(5,2,34)  -5.459328    
         89        18         4                     1_GWF-(1,2,3)  0.2298168E-03                    1_GWF-(4,4,34)  -1.177612    
         90        18         5                     1_GWF-(1,2,3)  0.9426928E-05                    1_GWF-(5,4,34)  0.7528980    
         91        18         6                     1_GWF-(1,2,3)  0.2824775E-05                    1_GWF-(4,4,34) -0.6883417E-01
         92        19         1                     1_GWF-(1,2,3) -0.9937864E-01                     1_GWF-(7,3,7)   260.9832    
         93        19         2                     1_GWF-(1,2,3) -0.9460817E-02                     1_GWF-(5,3,7)  -44.29125    
         94        19         3                     1_GWF-(1,2,3) -0.1755654E-02                    1_GWF-(5,9,14)  -12.95315    
         95        19         4                     1_GWF-(1,2,3)  0.4521337E-03                    1_GWF-(4,7,34) -0.4324914    
         96        19         5                     1_GWF-(1,2,3)  0.4074443E-04                    1_GWF-(4,4,34) -0.2297860    
         97        19         6                     1_GWF-(1,2,3) -0.1958034E-04                    1_GWF-(5,4,34) -0.8812032    
         98        19         7                     1_GWF-(1,2,4) -0.9322786E-05                    1_GWF-(5,4,34) -0.7890795E-02
         99        20         1                     1_GWF-(1,2,3) -0.1420828                         1_GWF-(7,3,7)   242.3509    
        100        20         2                     1_GWF-(1,2,3) -0.9077179E-02                   1_GWF-(5,14,16)   29.57137    
        101        20         3                     1_GWF-(1,2,3) -0.2294258E-02                    1_GWF-(5,9,14)  -34.68315    
        102        20         4                     1_GWF-(1,2,3)  0.1266929E-02                     1_GWF-(7,3,7) -0.6573319    
        103        20         5                     1_GWF-(1,2,3)  0.6604024E-04                    1_GWF-(5,8,14)  0.1450479    
        104        20         6                     1_GWF-(1,2,3) -0.2685728E-06                   1_GWF-(4,20,33) -0.9396956E-01
        105        21         1                     1_GWF-(1,2,3) -0.1871060                         1_GWF-(7,3,7)   223.6646    
        106        21         2                     1_GWF-(1,2,3) -0.7506241E-02                   1_GWF-(5,14,16)   36.24747    
        107        21         3                     1_GWF-(1,2,3) -0.1782733E-01                    1_GWF-(5,8,31)  -468.4808    
        108        21         4                     1_GWF-(1,2,3)  0.1675124E-01                   1_GWF-(5,16,32)  -1.581190    
        109        21         5                     1_GWF-(1,2,3)  0.1235830E-03                    1_GWF-(5,8,14)  0.2312668    
        110        21         6                     1_GWF-(1,2,3)  0.1074510E-05                   1_GWF-(4,20,33) -0.1038186    
        111        21         7                     1_GWF-(1,2,3)  0.4306027E-05                    1_GWF-(5,8,31) -0.1290783E-01
        112        22         1                     1_GWF-(1,2,3) -0.2315558                         1_GWF-(7,3,7)   205.4756    
        113        22         2                     1_GWF-(1,2,3) -0.5484509E-02                    1_GWF-(5,8,31)   40.72925    
        114        22         3                     1_GWF-(1,2,3)  0.1776044E-02                    1_GWF-(5,8,31)   125.4312    
        115        22         4                     1_GWF-(1,2,3) -0.2460817E-02                   1_GWF-(5,16,32)  -2.791684    
        116        22         5                     1_GWF-(1,2,3)  0.1649827E-03                    1_GWF-(5,8,14)  0.3609204    
        117        22         6                     1_GWF-(1,2,3)  0.5417513E-05                   1_GWF-(4,20,33) -0.1507182    
        118        22         7                     1_GWF-(1,2,3)  0.1047864E-04                    1_GWF-(4,7,34)  0.2490614E-01
        119        23         1                     1_GWF-(1,2,3) -0.2725847                         1_GWF-(9,3,7)   186.9781    
        120        23         2                     1_GWF-(1,2,3) -0.3280124E-02                    1_GWF-(5,8,31)   46.31485    
        121        23         3                     1_GWF-(1,2,3)  0.1857729E-05                    1_GWF-(5,8,31)   65.24584    
        122        23         4                     1_GWF-(1,2,3)  0.1453739E-03                   1_GWF-(5,16,32)  -4.587344    
        123        23         5                     1_GWF-(1,2,3)  0.1245840E-03                   1_GWF-(5,16,32) -0.6642456    
        124        23         6                     1_GWF-(1,2,3)  0.3906969E-04                    1_GWF-(5,9,14)  0.2100243    
        125        23         7                     1_GWF-(1,2,3)  0.1137081E-04                   1_GWF-(4,20,33)  0.4070544E-01
        126        24         1                     1_GWF-(1,2,3) -0.3062170                       1_GWF-(5,17,11)   321.3170    
        127        24         2                     1_GWF-(1,2,3) -0.2280719E-02                   1_GWF-(5,17,11)  -105.3495    
        128        24         3                     1_GWF-(1,2,3) -0.7481600E-04                   1_GWF-(5,16,12)   48.76485    
        129        24         4                     1_GWF-(1,2,3)  0.1779994E-02                   1_GWF-(5,16,12)   1.759905    
        130        24         5                     1_GWF-(1,2,3)  0.8676973E-04                   1_GWF-(5,17,12)  0.6082070    
        131        24         6                     1_GWF-(1,2,3) -0.5776028E-07                   1_GWF-(5,15,32) -0.2050389    
        132        24         7                     1_GWF-(1,2,3)  0.6258139E-05                   1_GWF-(4,20,33)  0.4358757E-01
        133        25         1                     1_GWF-(1,2,3) -0.3368409                       1_GWF-(5,17,11)   233.3527    
        134        25         2                     1_GWF-(1,2,3)  0.1534665E-02                   1_GWF-(5,16,11)  -81.98934    
        135        25         3                     1_GWF-(1,2,3)  0.1201120E-02                   1_GWF-(5,16,12)   28.18778    
        136        25         4                     1_GWF-(1,2,3)  0.1645713E-02                    1_GWF-(9,17,3)  -4.903663    
        137        25         5                     1_GWF-(1,2,3) -0.7525133E-04                   1_GWF-(5,16,32) -0.6133657    
        138        25         6                     1_GWF-(1,2,3)  0.5124325E-05                   1_GWF-(5,15,12) -0.2365890    
        139        25         7                     1_GWF-(1,2,3) -0.6323694E-06                   1_GWF-(5,17,11)  0.7112757E-01
        140        26         1                     1_GWF-(1,2,3) -0.3577241                        1_GWF-(4,3,34)  -251.4336    
        141        26         2                     1_GWF-(1,2,3)  0.5124312E-02                    1_GWF-(4,3,34)  -48.35851    
        142        26         3                     1_GWF-(1,2,3) -0.6319458E-02                    1_GWF-(4,3,34)  -127.8163    
        143        26         4                     1_GWF-(1,2,3)  0.1003429E-01                    1_GWF-(9,17,3)  -3.797750    
        144        26         5                     1_GWF-(1,2,3) -0.1784434E-03                    1_GWF-(9,17,3) -0.5844463    
        145        26         6                     1_GWF-(1,2,3) -0.1869615E-04                    1_GWF-(5,8,15)  0.2089645    
        146        26         7                     1_GWF-(1,2,3) -0.7867731E-05                     1_GWF-(9,7,7) -0.4598483E-01
        147        27         1                     1_GWF-(1,2,3) -0.3706371                         1_GWF-(9,3,7)   159.8922    
        148        27         2                     1_GWF-(1,2,3)  0.7851647E-02                   1_GWF-(5,16,21)   55.20624    
        149        27         3                     1_GWF-(1,2,3) -0.2766473E-02                    1_GWF-(5,8,31)   65.56007    
        150        27         4                     1_GWF-(1,2,3)  0.7859435E-02                    1_GWF-(9,17,3)  -5.973967    
        151        27         5                     1_GWF-(1,2,3) -0.3950636E-03                    1_GWF-(9,17,3)  -1.048836    
        152        27         6                     1_GWF-(1,2,3) -0.5547849E-04                   1_GWF-(5,15,21)  0.2031640    
        153        27         7                     1_GWF-(1,2,3) -0.1719826E-04                    1_GWF-(5,9,24)  0.1314954    
        154        27         8                     1_GWF-(1,2,3)  0.9634764E-05                    1_GWF-(4,7,34)  0.1065905E-01
        155        28         1                     1_GWF-(1,2,3) -0.3761439                       1_GWF-(5,13,13)   174.1483    
        156        28         2                     1_GWF-(1,2,3)  0.9802483E-02                   1_GWF-(5,13,13)   75.55143    
        157        28         3                     1_GWF-(1,2,3) -0.1196312E-02                    1_GWF-(5,8,31)   57.41343    
        158        28         4                     1_GWF-(1,2,3)  0.8642732E-02                    1_GWF-(9,17,3)  -10.43565    
        159        28         5                     1_GWF-(1,2,3) -0.8045094E-03                    1_GWF-(9,17,3)  -2.140962    
        160        28         6                     1_GWF-(1,2,3) -0.1331212E-03                    1_GWF-(5,8,14)  0.3392547    
        161        28         7                     1_GWF-(1,2,3) -0.5337633E-05                    1_GWF-(4,7,34)  0.1824528    
        162        28         8                     1_GWF-(1,2,3) -0.2435390E-04                    1_GWF-(9,10,5) -0.1022013E-01
        163        29         1                     1_GWF-(1,2,3) -0.3719203                       1_GWF-(5,13,15)  -232.1287    
        164        29         2                     1_GWF-(1,2,3)  0.1409130E-01                   1_GWF-(5,12,15)   120.9918    
        165        29         3                     1_GWF-(1,2,3)  0.2779314E-02                    1_GWF-(5,8,31)   18.13881    
        166        29         4                     1_GWF-(1,2,3)  0.3714126E-02                   1_GWF-(5,12,15)   8.427580    
        167        29         5                     1_GWF-(1,2,3) -0.2291238E-03                   1_GWF-(5,12,15)  -3.912911    
        168        29         6                     1_GWF-(1,2,3) -0.4193173E-03                    1_GWF-(4,7,34)  0.4958435    
        169        29         7                     1_GWF-(1,2,3) -0.6522794E-04                    1_GWF-(5,8,15)  0.6113609E-01
        170        30         1                     1_GWF-(1,2,3) -0.3677725                       1_GWF-(5,11,19)   228.7464    
        171        30         2                     1_GWF-(1,2,3)  0.1725716E-01                   1_GWF-(5,11,19)   116.3589    
        172        30         3                     1_GWF-(1,2,3)  0.4028403E-02                   1_GWF-(5,10,17)   18.38129    
        173        30         4                     1_GWF-(1,2,3)  0.3156417E-02                    1_GWF-(9,17,3)  -4.963274    
        174        30         5                     1_GWF-(1,2,3)  0.9448660E-04                    1_GWF-(9,17,3)  -5.369912    
        175        30         6                     1_GWF-(1,2,3) -0.7536975E-03                   1_GWF-(5,14,18)  0.5636922    
        176        30         7                     1_GWF-(1,2,3) -0.2038794E-04                    1_GWF-(4,7,34)  0.3185547    
        177        30         8                     1_GWF-(1,2,3) -0.2810210E-04                    1_GWF-(4,7,34)  0.1141754    
        178        30         9                     1_GWF-(1,2,3) -0.8022001E-05                    1_GWF-(4,7,34)  0.4569395E-01
        179        31         1                     1_GWF-(1,2,3) -0.3530784                         1_GWF-(9,6,4)   198.7126    
        180        31         2                     1_GWF-(1,2,3)  0.1473324E-01                   1_GWF-(5,12,20)   125.7479    
        181        31         3                     1_GWF-(1,2,3)  0.4506037E-02                    1_GWF-(5,8,31)   25.85574    
        182        31         4                     1_GWF-(1,2,3)  0.4771847E-02                   1_GWF-(5,13,19)   4.038314    
        183        31         5                     1_GWF-(1,2,3)  0.6445486E-03                   1_GWF-(5,13,19)   2.432765    
        184        31         6                     1_GWF-(1,2,3) -0.9429736E-04                    1_GWF-(9,17,3)  -1.169214    
        185        31         7                     1_GWF-(1,2,3) -0.1385400E-03                    1_GWF-(4,7,34)  0.1769291    
        186        31         8                     1_GWF-(1,2,3) -0.1391373E-04                   1_GWF-(5,13,19) -0.5849828E-01
        187        32         1                     1_GWF-(1,2,3) -0.3385015                        1_GWF-(5,4,15)   194.8309    
        188        32         2                     1_GWF-(1,2,3)  0.1827673E-01                    1_GWF-(5,4,15)   124.0849    
        189        32         3                     1_GWF-(1,2,3)  0.5273541E-02                    1_GWF-(5,8,31)   17.27892    
        190        32         4                     1_GWF-(1,2,3)  0.4415636E-02                    1_GWF-(9,17,3)  -5.568000    
        191        32         5                     1_GWF-(1,2,3) -0.2573922E-03                    1_GWF-(5,4,15)  -1.637666    
        192        32         6                     1_GWF-(1,2,3) -0.1491567E-03                    1_GWF-(4,7,34)  0.5896542    
        193        32         7                     1_GWF-(1,2,3) -0.4456751E-04                    1_GWF-(4,7,34)  0.3567832    
        194        32         8                     1_GWF-(1,2,3) -0.2938421E-04                    1_GWF-(4,7,34)  0.1194810    
        195        32         9                     1_GWF-(1,2,3) -0.1357351E-04                    1_GWF-(5,9,16)  0.2682096E-01
        196        33         1                     1_GWF-(1,2,3) -0.3166046                        1_GWF-(5,4,15)   250.7558    
        197        33         2                     1_GWF-(1,2,3)  0.1731439E-01                    1_GWF-(5,4,15)   143.5785    
        198        33         3                     1_GWF-(1,2,3)  0.1154518E-01                    1_GWF-(5,4,15)   36.25786    
        199        33         4                     1_GWF-(1,2,3)  0.1336508E-02                    1_GWF-(5,4,15)  -19.26570    
        200        33         5                     1_GWF-(1,2,3) -0.1985334E-02                    1_GWF-(9,17,3)  -2.019568    
        201        33         6                     1_GWF-(1,2,3) -0.2013216E-03                    1_GWF-(5,4,15)  0.8071013    
        202        33         7                     1_GWF-(1,2,3) -0.2909791E-04                    1_GWF-(4,7,34)  0.2481046    
        203        33         8                     1_GWF-(1,2,3) -0.2873066E-04                   1_GWF-(10,23,3) -0.6874983E-01
        204        34         1                     1_GWF-(1,2,3) -0.2880135                         1_GWF-(9,6,4)   161.0036    
        205        34         2                     1_GWF-(1,2,3)  0.1540748E-01                   1_GWF-(5,19,17)  -125.8127    
        206        34         3                     1_GWF-(1,2,3)  0.4659170E-02                   1_GWF-(10,23,3)   25.64165    
        207        34         4                     1_GWF-(1,2,3)  0.5234864E-02                   1_GWF-(4,10,29)   5.306974    
        208        34         5                     1_GWF-(1,2,3)  0.8182896E-03                   1_GWF-(5,19,18)   2.749534    
        209        34         6                     1_GWF-(1,2,3) -0.9910347E-04                    1_GWF-(9,17,3)  -1.665918    
        210        34         7                     1_GWF-(1,2,3) -0.1811588E-03                   1_GWF-(10,18,3) -0.4309624    
        211        34         8                     1_GWF-(1,2,3) -0.5908496E-04                   1_GWF-(5,19,18) -0.2058085    
        212        34         9                     1_GWF-(1,2,3) -0.7856711E-05                   1_GWF-(10,23,3) -0.7425821E-01
        213        35         1                     1_GWF-(1,2,3) -0.2587868                       1_GWF-(5,18,17)  -205.6745    
        214        35         2                     1_GWF-(1,2,3)  0.1538100E-01                   1_GWF-(5,17,17)   178.5409    
        215        35         3                     1_GWF-(1,2,3)  0.2904620E-02                   1_GWF-(4,17,17)  -26.49455    
        216        35         4                     1_GWF-(1,2,3)  0.4279101E-02                   1_GWF-(5,18,17)  -7.805188    
        217        35         5                     1_GWF-(1,2,3)  0.1043419E-02                    1_GWF-(9,17,3)  -2.374074    
        218        35         6                     1_GWF-(1,2,3)  0.1656100E-04                    1_GWF-(9,17,3)  -1.436912    
        219        35         7                     1_GWF-(1,2,3) -0.1130591E-03                    1_GWF-(9,17,3) -0.6526128    
        220        35         8                     1_GWF-(1,2,3) -0.8877716E-04                   1_GWF-(5,20,19) -0.2894542    
        221        35         9                     1_GWF-(1,2,3) -0.1276991E-04                   1_GWF-(10,23,3) -0.1430502    
        222        35        10                     1_GWF-(1,2,3) -0.3812170E-04                   1_GWF-(10,18,3)  0.1169453    
        223        35        11                     1_GWF-(1,2,3)  0.3266157E-05                   1_GWF-(10,18,3)  0.9876179E-01
        224        36         1                     1_GWF-(1,2,3) -0.2305113                       1_GWF-(5,17,17)  -209.4160    
        225        36         2                     1_GWF-(1,2,3)  0.1435451E-01                   1_GWF-(5,16,17)   175.2032    
        226        36         3                     1_GWF-(1,2,3)  0.2605540E-02                   1_GWF-(10,23,3)   25.20948    
        227        36         4                     1_GWF-(1,2,3)  0.4443301E-02                   1_GWF-(5,16,19)   8.716021    
        228        36         5                     1_GWF-(1,2,3)  0.7167881E-03                   1_GWF-(5,13,18)   2.490507    
        229        36         6                     1_GWF-(1,2,3)  0.1587224E-04                    1_GWF-(9,17,3)  -1.469013    
        230        36         7                     1_GWF-(1,2,3) -0.2785470E-03                   1_GWF-(4,16,19)  0.3435217    
        231        36         8                     1_GWF-(1,2,3)  0.5476927E-05                   1_GWF-(10,23,3) -0.2418981    
        232        36         9                     1_GWF-(1,2,3)  0.9062164E-06                   1_GWF-(10,23,3) -0.7142026E-01
        233        37         1                     1_GWF-(1,2,3) -0.2071302                        1_GWF-(5,6,13)   169.2306    
        234        37         2                     1_GWF-(1,2,3)  0.1364548E-01                   1_GWF-(5,16,17)   155.1783    
        235        37         3                     1_GWF-(1,2,3)  0.3341189E-02                   1_GWF-(10,23,3)   25.94753    
        236        37         4                     1_GWF-(1,2,3)  0.4690973E-02                   1_GWF-(5,14,17)   7.005562    
        237        37         5                     1_GWF-(1,2,3)  0.1006581E-02                    1_GWF-(9,17,3)  -3.272884    
        238        37         6                     1_GWF-(1,2,3) -0.1166789E-03                    1_GWF-(9,17,3)  -1.896047    
        239        37         7                     1_GWF-(1,2,3) -0.1767506E-03                    1_GWF-(9,17,3) -0.8752050    
        240        37         8                     1_GWF-(1,2,3) -0.1656827E-03                   1_GWF-(5,13,19) -0.3109738    
        241        37         9                     1_GWF-(1,2,3)  0.9025010E-05                   1_GWF-(10,23,3) -0.3518114    
        242        37        10                     1_GWF-(1,2,4) -0.2086803E-04                   1_GWF-(5,15,18)  0.1839556E-01
        243        38         1                     1_GWF-(1,2,3) -0.1703775                       1_GWF-(5,28,16)   163.9050    
        244        38         2                     1_GWF-(1,2,3)  0.6176561E-02                   1_GWF-(5,16,18)   118.4370    
        245        38         3                     1_GWF-(1,2,3)  0.2838383E-02                   1_GWF-(10,23,3)   28.13106    
        246        38         4                     1_GWF-(1,2,3)  0.3543153E-02                   1_GWF-(5,16,18)   11.57180    
        247        38         5                     1_GWF-(1,2,3)  0.1841578E-02                   1_GWF-(4,10,29)   3.643698    
        248        38         6                     1_GWF-(1,2,3)  0.2020601E-03                    1_GWF-(9,17,3)  -1.598165    
        249        38         7                     1_GWF-(1,2,3) -0.8973870E-04                    1_GWF-(9,17,3)  -1.004836    
        250        38         8                     1_GWF-(1,2,3) -0.1322960E-03                   1_GWF-(10,23,3) -0.3987939    
        251        38         9                     1_GWF-(1,2,3) -0.2852739E-04                   1_GWF-(10,23,3) -0.2589492    
        252        38        10                     1_GWF-(1,2,3) -0.3034869E-04                   1_GWF-(5,12,18)  0.9323634E-01
        253        39         1                     1_GWF-(1,2,3) -0.1509394                        1_GWF-(5,6,13)   152.0022    
        254        39         2                     1_GWF-(1,2,3)  0.7548560E-02                   1_GWF-(5,16,19)   80.25154    
        255        39         3                     1_GWF-(1,2,3)  0.2598181E-02                   1_GWF-(10,23,3)   25.22414    
        256        39         4                     1_GWF-(1,2,3)  0.3343796E-02                   1_GWF-(4,10,25)   9.517320    
        257        39         5                     1_GWF-(1,2,3)  0.1302789E-02                   1_GWF-(4,10,29)   3.417613    
        258        39         6                     1_GWF-(1,2,3)  0.1301487E-03                    1_GWF-(9,17,3)  -1.463114    
        259        39         7                     1_GWF-(1,2,3) -0.9738232E-04                   1_GWF-(10,19,3) -0.8801971    
[...]
         27         5         3                     1_GWF-(1,2,4) -0.2520401E-08                   1_GWF-(5,14,12) -0.2110868    
         28         5         4                     1_GWF-(1,2,4) -0.3136253E-08                   1_GWF-(10,3,33)  0.1004111    
         29         5         5                     1_GWF-(1,2,4) -0.2375682E-08                   1_GWF-(10,3,33)  0.3647611E-01
         30         6         1                     1_GWF-(1,2,3)  0.7650673E-08                   1_GWF-(4,14,12)   2.527285    
         31         6         2                     1_GWF-(1,2,3)  0.1030974E-08                   1_GWF-(5,14,12) -0.2722750    
         32         6         3                     1_GWF-(1,2,3) -0.3337906E-10                   1_GWF-(5,14,12) -0.7638891E-01
         33         7         1                     1_GWF-(1,2,3)  0.2595535E-08                   1_GWF-(4,14,12)  0.7271099    
         34         7         2                     1_GWF-(1,2,3)  0.2357353E-09                   1_GWF-(5,14,12) -0.9067351E-01
         35         8         1                     1_GWF-(1,2,3)  0.1501747E-09                   1_GWF-(10,3,33)  0.1406469    
         36         8         2                     1_GWF-(1,2,3)  0.1917030E-10                   1_GWF-(5,14,12) -0.2868873E-01
         37         9         1                     1_GWF-(1,2,3)  0.8428169E-10                   1_GWF-(5,14,12) -0.3546212E-01
         38        10         1                     1_GWF-(1,2,3) -0.1475448E-11                   1_GWF-(4,14,12)  0.5162131E-01


 OUTER ITERATION SUMMARY
 ---------------------------------------------------------------------------------------
                       OUTER     INNER         MAXIMUM                    MAXIMUM CHANGE
                   ITERATION ITERATION          CHANGE                    MODEL-(CELLID)
 ---------------------------------------------------------------------------------------
 Linear Solver             1         7   -1.395817E-02                   1_GWF-(1,28,14)
 Under-relaxation          1             -1.395817E-02                   1_GWF-(1,28,14)
 Linear Solver             2         7   -1.486960E-02                   1_GWF-(4,14,12)
 Under-relaxation          2             -1.486960E-02                   1_GWF-(4,14,12)
 Linear Solver             3         6   -1.150135E-02                   1_GWF-(4,14,12)
 Under-relaxation          3             -1.150135E-02                   1_GWF-(4,14,12)
 Linear Solver             4         6   -6.676851E-03                   1_GWF-(4,14,12)
 Under-relaxation          4             -6.676851E-03                   1_GWF-(4,14,12)
 Linear Solver             5         5   -3.109301E-03                   1_GWF-(4,14,12)
 Under-relaxation          5             -3.113339E-03                   1_GWF-(4,14,12)
 Linear Solver             6         4   -1.224628E-03                   1_GWF-(4,14,12)
 Under-relaxation          6             -1.226415E-03                   1_GWF-(4,14,12)
 Linear Solver             7         3   -4.237317E-04                   1_GWF-(4,14,12)
 Under-relaxation          7             -4.244281E-04                   1_GWF-(4,14,12)
 Linear Solver             8         2   -1.332239E-04                   1_GWF-(4,14,12)
 Under-relaxation          8             -1.334698E-04                   1_GWF-(4,14,12)
 Linear Solver             9         2   -2.967145E-05                   1_GWF-(4,14,12)
 Under-relaxation          9             -2.974436E-05                   1_GWF-(4,14,12)
 Linear Solver            10         1   -1.215580E-05                   1_GWF-(4,14,12)
 Under-relaxation         10             -1.218010E-05                   1_GWF-(4,14,12)
 Linear Solver            11         1    5.487224E-06                   1_GWF-(11,2,34)

 11 CALLS TO NUMERICAL SOLUTION IN TIME STEP 14 STRESS PERIOD 17
 44 TOTAL ITERATIONS

 INNER ITERATION SUMMARY
 --------------------------------------------------------------------------------------------------------------------------------
     TOTAL      OUTER     INNER                    MAXIMUM CHANGE        MAXIMUM                  MAXIMUM RESIDUAL        MAXIMUM
 ITERATION  ITERATION ITERATION                    MODEL-(CELLID)         CHANGE                    MODEL-(CELLID)       RESIDUAL
 --------------------------------------------------------------------------------------------------------------------------------
          1         1         1                     1_GWF-(1,2,3) -0.1098917E-01                   1_GWF-(5,15,12)  -24.07744    
          2         1         2                     1_GWF-(1,2,3) -0.2733695E-03                   1_GWF-(5,14,13)  -6.463730    
          3         1         3                     1_GWF-(1,2,3) -0.9468917E-04                   1_GWF-(10,23,3)   2.416118    
          4         1         4                     1_GWF-(1,2,3) -0.1216705E-04                   1_GWF-(10,23,3)  0.8861518    
          5         1         5                     1_GWF-(1,2,3)  0.7722949E-05                   1_GWF-(10,23,3)  0.3675351    
          6         1         6                     1_GWF-(1,2,3)  0.5247334E-05                   1_GWF-(10,3,33)  0.1793925    
          7         1         7                     1_GWF-(1,2,3)  0.1193514E-05                   1_GWF-(10,23,3)  0.6103458E-01
          8         2         1                     1_GWF-(1,2,3) -0.6297987E-07                   1_GWF-(4,14,12)   54.66679    
          9         2         2                     1_GWF-(1,2,3) -0.6176071E-06                   1_GWF-(5,14,13)  -4.114127    
         10         2         3                     1_GWF-(1,2,4) -0.4539742E-05                   1_GWF-(9,14,11)  -1.029716    
         11         2         4                     1_GWF-(1,2,4) -0.5808321E-05                   1_GWF-(5,14,12) -0.4046598    
         12         2         5                     1_GWF-(1,2,4) -0.3914572E-05                   1_GWF-(5,14,12) -0.2224507    
         13         2         6                     1_GWF-(1,2,4) -0.2678436E-05                   1_GWF-(5,14,12) -0.1003160    
         14         2         7                     1_GWF-(1,2,4) -0.1591683E-05                   1_GWF-(5,14,12) -0.3844656E-01
         15         3         1                     1_GWF-(1,2,4) -0.9815614E-06                   1_GWF-(4,14,12)   51.50349    
         16         3         2                     1_GWF-(1,2,4) -0.3397032E-06                   1_GWF-(4,14,12)   3.840769    
         17         3         3                     1_GWF-(1,2,4) -0.6282035E-06                   1_GWF-(9,14,11) -0.8421883    
         18         3         4                     1_GWF-(1,2,4) -0.8409612E-06                   1_GWF-(5,14,12) -0.3193206    
         19         3         5                     1_GWF-(1,2,4) -0.5843845E-06                   1_GWF-(5,14,12) -0.1749921    
         20         3         6                     1_GWF-(1,2,4) -0.3940964E-06                   1_GWF-(5,14,12) -0.8436473E-01
         21         4         1                     1_GWF-(1,2,4) -0.3787209E-06                   1_GWF-(4,14,12)   31.64400    
         22         4         2                     1_GWF-(1,2,4) -0.1106198E-06                   1_GWF-(4,14,12)   2.384577    
         23         4         3                     1_GWF-(1,2,4) -0.8616127E-07                   1_GWF-(9,14,11) -0.5134329    
         24         4         4                     1_GWF-(1,2,4) -0.1048168E-06                   1_GWF-(5,14,12) -0.2076787    
         25         4         5                     1_GWF-(1,2,4) -0.7489674E-07                   1_GWF-(5,14,12) -0.1170346    
         26         4         6                     1_GWF-(1,2,4) -0.5925966E-07                   1_GWF-(5,14,12) -0.5609293E-01
         27         5         1                     1_GWF-(1,2,4) -0.6098404E-07                   1_GWF-(4,14,12)   15.11959    
         28         5         2                     1_GWF-(1,2,4) -0.1904502E-07                   1_GWF-(4,14,12)   1.126274    
         29         5         3                     1_GWF-(1,2,4) -0.1223202E-07                   1_GWF-(9,14,11) -0.2479877    
         30         5         4                     1_GWF-(1,2,4) -0.1290298E-07                   1_GWF-(5,14,12) -0.1137713    
         31         5         5                     1_GWF-(1,2,4) -0.1055697E-07                   1_GWF-(5,14,12) -0.6043501E-01
         32         6         1                     1_GWF-(1,2,3) -0.2433172E-08                   1_GWF-(4,14,12)   6.048466    
         33         6         2                     1_GWF-(1,2,3) -0.1848064E-08                   1_GWF-(4,14,12)  0.4382316    
         34         6         3                     1_GWF-(1,2,3) -0.1338865E-08                   1_GWF-(9,14,11) -0.1069670    
         35         6         4                     1_GWF-(1,2,3) -0.1579774E-08                   1_GWF-(5,14,12) -0.5320759E-01
         36         7         1                     1_GWF-(1,2,3) -0.5378791E-09                   1_GWF-(4,14,12)   2.103085    
         37         7         2                     1_GWF-(1,2,3) -0.7735095E-09                   1_GWF-(4,14,12)  0.1379489    
         38         7         3                     1_GWF-(1,2,3) -0.4147255E-09                   1_GWF-(5,14,12) -0.4848669E-01
         39         8         1                     1_GWF-(1,2,3) -0.2296888E-09                   1_GWF-(4,14,12)  0.6428822    
         40         8         2                     1_GWF-(1,2,3) -0.2641698E-09                   1_GWF-(5,14,12) -0.6284399E-01
         41         9         1                     1_GWF-(1,2,3) -0.2558342E-09                   1_GWF-(4,14,12)  0.1407279    
         42         9         2                     1_GWF-(1,2,3) -0.9377449E-10                   1_GWF-(5,14,12) -0.2015152E-01
         43        10         1                     1_GWF-(1,2,3) -0.1241700E-09                   1_GWF-(5,14,12) -0.4256956E-01
         44        11         1                     1_GWF-(1,2,3) -0.6980590E-10                   1_GWF-(4,14,12)  0.5712072E-01


 OUTER ITERATION SUMMARY
 ---------------------------------------------------------------------------------------
                       OUTER     INNER         MAXIMUM                    MAXIMUM CHANGE
                   ITERATION ITERATION          CHANGE                    MODEL-(CELLID)
 ---------------------------------------------------------------------------------------
 Linear Solver             1         8   -1.768888E-02                   1_GWF-(4,14,12)
 Under-relaxation          1             -1.768888E-02                   1_GWF-(4,14,12)
 Linear Solver             2         7   -1.950236E-02                   1_GWF-(4,14,12)
 Under-relaxation          2             -1.950236E-02                   1_GWF-(4,14,12)
 Linear Solver             3         7   -1.464221E-02                   1_GWF-(4,14,12)
 Under-relaxation          3             -1.464221E-02                   1_GWF-(4,14,12)
 Linear Solver             4         6   -9.057877E-03                   1_GWF-(4,14,12)
 Under-relaxation          4             -9.057877E-03                   1_GWF-(4,14,12)
 Linear Solver             5         5   -4.719380E-03                   1_GWF-(4,14,12)
 Under-relaxation          5             -4.725226E-03                   1_GWF-(4,14,12)
 Linear Solver             6         4   -2.136286E-03                   1_GWF-(4,14,12)
 Under-relaxation          6             -2.139164E-03                   1_GWF-(4,14,12)
 Linear Solver             7         3   -8.686581E-04                   1_GWF-(4,14,12)
 Under-relaxation          7             -8.699287E-04                   1_GWF-(4,14,12)
 Linear Solver             8         3   -3.137741E-04                   1_GWF-(4,14,12)
 Under-relaxation          8             -3.142792E-04                   1_GWF-(4,14,12)
 Linear Solver             9         2   -1.134676E-04                   1_GWF-(4,14,12)
 Under-relaxation          9             -1.136594E-04                   1_GWF-(4,14,12)
 Linear Solver            10         2   -3.335070E-05                   1_GWF-(4,14,12)
 Under-relaxation         10             -3.341574E-05                   1_GWF-(4,14,12)
 Linear Solver            11         1   -1.510401E-05                   1_GWF-(4,14,12)
 Under-relaxation         11             -1.512910E-05                   1_GWF-(4,14,12)
 Linear Solver            12         1   -2.205397E-06                  1_GWF-(10,13,13)

 12 CALLS TO NUMERICAL SOLUTION IN TIME STEP 15 STRESS PERIOD 17
 49 TOTAL ITERATIONS

 INNER ITERATION SUMMARY
 --------------------------------------------------------------------------------------------------------------------------------
     TOTAL      OUTER     INNER                    MAXIMUM CHANGE        MAXIMUM                  MAXIMUM RESIDUAL        MAXIMUM
 ITERATION  ITERATION ITERATION                    MODEL-(CELLID)         CHANGE                    MODEL-(CELLID)       RESIDUAL
 --------------------------------------------------------------------------------------------------------------------------------
          1         1         1                     1_GWF-(1,2,3) -0.1516128E-01                   1_GWF-(5,15,12)  -32.29129    
          2         1         2                     1_GWF-(1,2,3) -0.4632470E-03                   1_GWF-(5,14,13)  -9.883698    
          3         1         3                     1_GWF-(1,2,3) -0.4224613E-04                   1_GWF-(10,23,3)   3.741166    
          4         1         4                     1_GWF-(1,2,3)  0.7508446E-04                   1_GWF-(10,23,3)   1.721800    
          5         1         5                     1_GWF-(1,2,3)  0.5538852E-04                   1_GWF-(10,23,3)  0.8683525    
          6         1         6                     1_GWF-(1,2,3)  0.3232559E-04                   1_GWF-(10,23,3)  0.3731695    
          7         1         7                     1_GWF-(1,2,3)  0.8522446E-05                   1_GWF-(10,23,3)  0.1880987    
          8         1         8                     1_GWF-(1,2,3)  0.2797131E-05                   1_GWF-(10,23,3)  0.7089193E-01
          9         2         1                     1_GWF-(1,2,3) -0.7507016E-06                   1_GWF-(4,14,12)   90.04983    
         10         2         2                     1_GWF-(1,2,4) -0.2962191E-05                   1_GWF-(4,14,12)   7.290420    
         11         2         3                     1_GWF-(1,2,4) -0.9392779E-05                   1_GWF-(9,14,11)  -2.115978    
         12         2         4                     1_GWF-(1,2,4) -0.1323342E-04                  1_GWF-(10,14,11) -0.8051416    
         13         2         5                     1_GWF-(1,2,4) -0.9762443E-05                   1_GWF-(5,14,12) -0.3646874    
         14         2         6                     1_GWF-(1,2,4) -0.6653072E-05                   1_GWF-(5,14,12) -0.1720175    
         15         2         7                     1_GWF-(1,2,4) -0.3686245E-05                   1_GWF-(5,14,12) -0.7070655E-01
         16         3         1                     1_GWF-(1,2,4) -0.2064027E-05                   1_GWF-(4,14,12)   75.46843    
         17         3         2                     1_GWF-(1,2,4) -0.1036041E-05                   1_GWF-(4,14,12)   6.417154    
         18         3         3                     1_GWF-(1,2,4) -0.1671365E-05                   1_GWF-(9,14,11)  -1.655809    
         19         3         4                     1_GWF-(1,2,4) -0.2385656E-05                   1_GWF-(9,14,11) -0.5964003    
         20         3         5                     1_GWF-(1,2,4) -0.1800455E-05                   1_GWF-(5,14,12) -0.2795238    
         21         3         6                     1_GWF-(1,2,4) -0.1261468E-05                   1_GWF-(5,14,12) -0.1345385    
         22         3         7                     1_GWF-(1,2,4) -0.7255748E-06                   1_GWF-(5,14,12) -0.5821596E-01
         23         4         1                     1_GWF-(1,2,4) -0.4598285E-06                   1_GWF-(4,14,12)   48.80672    
         24         4         2                     1_GWF-(1,2,4) -0.2209771E-06                   1_GWF-(4,14,12)   4.155139    
         25         4         3                     1_GWF-(1,2,4) -0.2813283E-06                   1_GWF-(9,14,11)  -1.057654    
         26         4         4                     1_GWF-(1,2,4) -0.4008005E-06                   1_GWF-(9,14,11) -0.3837875    
         27         4         5                     1_GWF-(1,2,4) -0.3118890E-06                   1_GWF-(5,14,12) -0.1744973    
         28         4         6                     1_GWF-(1,2,4) -0.2223159E-06                   1_GWF-(5,14,12) -0.8563414E-01
         29         5         1                     1_GWF-(1,2,4) -0.1874176E-06                   1_GWF-(4,14,12)   26.04173    
         30         5         2                     1_GWF-(1,2,4) -0.7565253E-07                   1_GWF-(4,14,12)   2.196502    
         31         5         3                     1_GWF-(1,2,4) -0.5097965E-07                   1_GWF-(9,14,11) -0.5576750    
         32         5         4                     1_GWF-(1,2,4) -0.6882267E-07                   1_GWF-(9,14,11) -0.2034391    
         33         5         5                     1_GWF-(1,2,4) -0.5495783E-07                   1_GWF-(5,14,12) -0.9068447E-01
         34         6         1                     1_GWF-(1,2,3) -0.4782273E-07                   1_GWF-(4,14,12)   11.97098    
         35         6         2                     1_GWF-(1,2,3) -0.1929438E-07                   1_GWF-(4,14,12)  0.9913131    
         36         6         3                     1_GWF-(1,2,3) -0.8850167E-08                   1_GWF-(9,14,11) -0.2505482    
         37         6         4                     1_GWF-(1,2,3) -0.1345709E-07                   1_GWF-(9,14,11) -0.9098616E-01
         38         7         1                     1_GWF-(1,2,3) -0.1613112E-07                   1_GWF-(4,14,12)   4.918752    
         39         7         2                     1_GWF-(1,2,3) -0.7964571E-08                   1_GWF-(4,14,12)  0.3967679    
         40         7         3                     1_GWF-(1,2,3) -0.3404256E-08                   1_GWF-(9,14,11) -0.9711511E-01
         41         8         1                     1_GWF-(1,2,3) -0.5594071E-08                   1_GWF-(4,14,12)   1.865312    
         42         8         2                     1_GWF-(1,2,3) -0.3835726E-08                   1_GWF-(4,14,12)  0.1375626    
         43         8         3                     1_GWF-(1,2,3) -0.1833796E-08                   1_GWF-(9,14,11) -0.3055911E-01
         44         9         1                     1_GWF-(1,2,3) -0.2475125E-08                   1_GWF-(4,14,12)  0.6341802    
         45         9         2                     1_GWF-(1,2,3) -0.1442036E-08                   1_GWF-(4,14,12)  0.4660750E-01
         46        10         1                     1_GWF-(1,2,3) -0.1138971E-08                   1_GWF-(4,14,12)  0.2302855    
         47        10         2                     1_GWF-(1,2,3) -0.8342227E-09                   1_GWF-(4,14,12)  0.1016377E-01
         48        11         1                     1_GWF-(1,2,3) -0.9545326E-09                   1_GWF-(4,14,12)  0.7558935E-01
         49        12         1                     1_GWF-(1,2,4) -0.5297752E-09                   1_GWF-(4,14,12)  0.6416826E-01

 INFORMATION ON VARIABLES STORED IN THE MEMORY MANAGER

 Number of allocated integer variables:   891383
 Number of allocated real variables:    802347
 Allocated memory in megabytes:     9.98431    


 Run end date and time (yyyy/mm/dd hh:mm:ss): 2019/09/17 13:21:27
 Elapsed run time:  8.409 Seconds

 Normal termination of simulation.
