                                   MODFLOW 6
                U.S. GEOLOGICAL SURVEY MODULAR HYDROLOGIC MODEL
                          GROUNDWATER FLOW MODEL (GWF)
                            VERSION 6.0.4 03/13/2019

  MODFLOW 6 compiled Sep 10 2019 14:27:06 with GFORTRAN compiler (ver. 9.2.0)

This software has been approved for release by the U.S. Geological 
Survey (USGS). Although the software has been subjected to rigorous 
review, the USGS reserves the right to update the software as needed 
pursuant to further analysis and review. No warranty, expressed or 
implied, is made by the USGS or the U.S. Government as to the 
functionality of the software and related material nor shall the 
fact of release constitute any such warranty. Furthermore, the 
software is released on condition that neither the USGS nor the U.S. 
Government shall be held liable for any damages resulting from its 
authorized or unauthorized use. Also refer to the USGS Water 
Resources Software User Rights Notice for complete use, copyright, 
and distribution information.


MODFLOW was compiled using uniform precision.
Precision of REAL variables: 15


 OPENED shellmound.dis
 FILE TYPE:DIS6                   UNIT 1005   STATUS:OLD                 
 FORMAT:FORMATTED              ACCESS:SEQUENTIAL          
 ACTION:READ                


 OPENED shellmound.ic
 FILE TYPE:IC6                    UNIT 1006   STATUS:OLD                 
 FORMAT:FORMATTED              ACCESS:SEQUENTIAL          
 ACTION:READ                


 OPENED shellmound.npf
 FILE TYPE:NPF6                   UNIT 1007   STATUS:OLD                 
 FORMAT:FORMATTED              ACCESS:SEQUENTIAL          
 ACTION:READ                


 OPENED shellmound.sto
 FILE TYPE:STO6                   UNIT 1008   STATUS:OLD                 
 FORMAT:FORMATTED              ACCESS:SEQUENTIAL          
 ACTION:READ                


 OPENED shellmound.rcha
 FILE TYPE:RCH6                   UNIT 1009   STATUS:OLD                 
 FORMAT:FORMATTED              ACCESS:SEQUENTIAL          
 ACTION:READ                


 OPENED shellmound.oc
 FILE TYPE:OC6                    UNIT 1010   STATUS:OLD                 
 FORMAT:FORMATTED              ACCESS:SEQUENTIAL          
 ACTION:READ                


 OPENED shellmound.sfr
 FILE TYPE:SFR6                   UNIT 1011   STATUS:OLD                 
 FORMAT:FORMATTED              ACCESS:SEQUENTIAL          
 ACTION:READ                


 OPENED shellmound.wel
 FILE TYPE:WEL6                   UNIT 1012   STATUS:OLD                 
 FORMAT:FORMATTED              ACCESS:SEQUENTIAL          
 ACTION:READ                

 NAMEFILE OPTIONS:
    STRESS PACKAGE INPUT WILL BE PRINTED FOR ALL MODEL STRESS PACKAGES
    FLOWS WILL BE SAVED TO BUDGET FILE SPECIFIED IN OUTPUT CONTROL
    NEWTON-RAPHSON method enabled for the model.

 DIS -- STRUCTURED GRID DISCRETIZATION PACKAGE, VERSION 2 : 3/27/2014 - INPUT READ FROM UNIT 1005


 PROCESSING DISCRETIZATION OPTIONS
    MODEL LENGTH UNIT IS METERS
    XORIGIN SPECIFIED AS     500955.000000000    
    YORIGIN SPECIFIED AS     1176285.00000000    
    ANGROT SPECIFIED AS     0.00000000000000    
 END OF DISCRETIZATION OPTIONS
 PROCESSING DISCRETIZATION DIMENSIONS
    NLAY =      13
    NROW =      30
    NCOL =      35
 END OF DISCRETIZATION DIMENSIONS
 PROCESSING GRIDDATA

                     DELR =   1000.000    

                     DELC =   1000.000    

 OPENED ./external/top.dat
 FILE TYPE:OPEN/CLOSE   UNIT 1014   STATUS:OLD                 
 FORMAT:FORMATTED              ACCESS:SEQUENTIAL          
 ACTION:READ                


 OPENED ./external/botm0.dat
 FILE TYPE:OPEN/CLOSE   UNIT 1015   STATUS:OLD                 
 FORMAT:FORMATTED              ACCESS:SEQUENTIAL          
 ACTION:READ                


 OPENED ./external/botm1.dat
 FILE TYPE:OPEN/CLOSE   UNIT 1016   STATUS:OLD                 
 FORMAT:FORMATTED              ACCESS:SEQUENTIAL          
 ACTION:READ                


 OPENED ./external/botm2.dat
 FILE TYPE:OPEN/CLOSE   UNIT 1017   STATUS:OLD                 
 FORMAT:FORMATTED              ACCESS:SEQUENTIAL          
 ACTION:READ                


 OPENED ./external/botm3.dat
 FILE TYPE:OPEN/CLOSE   UNIT 1018   STATUS:OLD                 
 FORMAT:FORMATTED              ACCESS:SEQUENTIAL          
 ACTION:READ                


 OPENED ./external/botm4.dat
 FILE TYPE:OPEN/CLOSE   UNIT 1019   STATUS:OLD                 
 FORMAT:FORMATTED              ACCESS:SEQUENTIAL          
 ACTION:READ                


 OPENED ./external/botm5.dat
 FILE TYPE:OPEN/CLOSE   UNIT 1020   STATUS:OLD                 
 FORMAT:FORMATTED              ACCESS:SEQUENTIAL          
 ACTION:READ                


 OPENED ./external/botm6.dat
 FILE TYPE:OPEN/CLOSE   UNIT 1021   STATUS:OLD                 
 FORMAT:FORMATTED              ACCESS:SEQUENTIAL          
 ACTION:READ                


 OPENED ./external/botm7.dat
 FILE TYPE:OPEN/CLOSE   UNIT 1022   STATUS:OLD                 
 FORMAT:FORMATTED              ACCESS:SEQUENTIAL          
 ACTION:READ                


 OPENED ./external/botm8.dat
 FILE TYPE:OPEN/CLOSE   UNIT 1023   STATUS:OLD                 
 FORMAT:FORMATTED              ACCESS:SEQUENTIAL          
 ACTION:READ                


 OPENED ./external/botm9.dat
 FILE TYPE:OPEN/CLOSE   UNIT 1024   STATUS:OLD                 
 FORMAT:FORMATTED              ACCESS:SEQUENTIAL          
 ACTION:READ                


 OPENED ./external/botm10.dat
 FILE TYPE:OPEN/CLOSE   UNIT 1025   STATUS:OLD                 
 FORMAT:FORMATTED              ACCESS:SEQUENTIAL          
 ACTION:READ                


 OPENED ./external/botm11.dat
 FILE TYPE:OPEN/CLOSE   UNIT 1026   STATUS:OLD                 
 FORMAT:FORMATTED              ACCESS:SEQUENTIAL          
 ACTION:READ                


 OPENED ./external/botm12.dat
 FILE TYPE:OPEN/CLOSE   UNIT 1027   STATUS:OLD                 
 FORMAT:FORMATTED              ACCESS:SEQUENTIAL          
 ACTION:READ                


 OPENED ./external/idomain0.dat
 FILE TYPE:OPEN/CLOSE   UNIT 1028   STATUS:OLD                 
 FORMAT:FORMATTED              ACCESS:SEQUENTIAL          
 ACTION:READ                


 OPENED ./external/idomain1.dat
 FILE TYPE:OPEN/CLOSE   UNIT 1029   STATUS:OLD                 
 FORMAT:FORMATTED              ACCESS:SEQUENTIAL          
 ACTION:READ                


 OPENED ./external/idomain2.dat
 FILE TYPE:OPEN/CLOSE   UNIT 1030   STATUS:OLD                 
 FORMAT:FORMATTED              ACCESS:SEQUENTIAL          
 ACTION:READ                


 OPENED ./external/idomain3.dat
 FILE TYPE:OPEN/CLOSE   UNIT 1031   STATUS:OLD                 
 FORMAT:FORMATTED              ACCESS:SEQUENTIAL          
 ACTION:READ                


 OPENED ./external/idomain4.dat
 FILE TYPE:OPEN/CLOSE   UNIT 1032   STATUS:OLD                 
 FORMAT:FORMATTED              ACCESS:SEQUENTIAL          
 ACTION:READ                


 OPENED ./external/idomain5.dat
 FILE TYPE:OPEN/CLOSE   UNIT 1033   STATUS:OLD                 
 FORMAT:FORMATTED              ACCESS:SEQUENTIAL          
 ACTION:READ                


 OPENED ./external/idomain6.dat
 FILE TYPE:OPEN/CLOSE   UNIT 1034   STATUS:OLD                 
 FORMAT:FORMATTED              ACCESS:SEQUENTIAL          
 ACTION:READ                


 OPENED ./external/idomain7.dat
 FILE TYPE:OPEN/CLOSE   UNIT 1035   STATUS:OLD                 
 FORMAT:FORMATTED              ACCESS:SEQUENTIAL          
 ACTION:READ                


 OPENED ./external/idomain8.dat
 FILE TYPE:OPEN/CLOSE   UNIT 1036   STATUS:OLD                 
 FORMAT:FORMATTED              ACCESS:SEQUENTIAL          
 ACTION:READ                


 OPENED ./external/idomain9.dat
 FILE TYPE:OPEN/CLOSE   UNIT 1037   STATUS:OLD                 
 FORMAT:FORMATTED              ACCESS:SEQUENTIAL          
 ACTION:READ                


 OPENED ./external/idomain10.dat
 FILE TYPE:OPEN/CLOSE   UNIT 1038   STATUS:OLD                 
 FORMAT:FORMATTED              ACCESS:SEQUENTIAL          
 ACTION:READ                


 OPENED ./external/idomain11.dat
 FILE TYPE:OPEN/CLOSE   UNIT 1039   STATUS:OLD                 
 FORMAT:FORMATTED              ACCESS:SEQUENTIAL          
 ACTION:READ                


 OPENED ./external/idomain12.dat
 FILE TYPE:OPEN/CLOSE   UNIT 1040   STATUS:OLD                 
 FORMAT:FORMATTED              ACCESS:SEQUENTIAL          
 ACTION:READ                

 END PROCESSING GRIDDATA

 THE SPECIFIED IDOMAIN RESULTS IN A REDUCED NUMBER OF CELLS.
 NUMBER OF USER NODES:   13650
 NUMBER OF NODES IN SOLUTION:    9192



 NPF -- NODE PROPERTY FLOW PACKAGE, VERSION 1, 3/30/2015 INPUT READ FROM UNIT 1007


 PROCESSING NPF OPTIONS
    CELL-BY-CELL FLOW INFORMATION WILL BE SAVED TO BINARY FILE WHENEVER ICBCFL IS NOT ZERO.
 END OF NPF OPTIONS

 WEL   -- WEL PACKAGE, VERSION 8, 2/22/2014 INPUT READ FROM UNIT 1012

 PROCESSING WEL OPTIONS
    LISTS OF WEL CELLS WILL BE PRINTED.
    WEL FLOWS WILL BE PRINTED TO LISTING FILE.
    FLOWS WILL BE SAVED TO BUDGET FILE SPECIFIED IN OUTPUT CONTROL
 END OF WEL OPTIONS

 PROCESSING WEL DIMENSIONS
    MAXBOUND =     602
 END OF WEL DIMENSIONS

 RCH   -- RCH PACKAGE, VERSION 8, 2/22/2014 INPUT READ FROM UNIT 1009

 PROCESSING RCH OPTIONS
    RECHARGE INPUT WILL BE READ AS ARRAY(S).
    LISTS OF RCH CELLS WILL BE PRINTED.
    FLOWS WILL BE SAVED TO BUDGET FILE SPECIFIED IN OUTPUT CONTROL
 END OF RCH OPTIONS

 SFR   -- SFR PACKAGE, VERSION 8, 2/22/2014 INPUT READ FROM UNIT 1011
 # MODFLOW-6 SFR input; created by SFRmaker v. 0.1.2+2.ga32c881

 PROCESSING SFR OPTIONS
    FLOWS WILL BE SAVED TO BUDGET FILE SPECIFIED IN OUTPUT CONTROL

 OPENED shellmound.sfr.cbc
 FILE TYPE:DATA(BINARY)   UNIT 1041   STATUS:REPLACE             
 FORMAT:UNFORMATTED            ACCESS:STREAM              
 ACTION:READWRITE           

    SFR  BUDGET  WILL BE SAVED TO FILE: shellmound.sfr.cbc                                                                                                                                                                                                                                                                                                                                                                                                                                                                                                                                                                                                                                                                                                                                                                                                                                                                                                                                                                                                                      
    OPENED ON UNIT:    1041

 OPENED shellmound.sfr.stage.bin
 FILE TYPE:DATA(BINARY)   UNIT 1042   STATUS:REPLACE             
 FORMAT:UNFORMATTED            ACCESS:STREAM              
 ACTION:READWRITE           

    SFR  STAGE  WILL BE SAVED TO FILE: shellmound.sfr.stage.bin                                                                                                                                                                                                                                                                                                                                                                                                                                                                                                                                                                                                                                                                                                                                                                                                                                                                                                                                                                                                                
    OPENED ON UNIT:    1042
    UNIT CONVERSION VALUE (   86400.00    ) SPECIFIED.
 END OF SFR OPTIONS

 PROCESSING SFR DIMENSIONS
    NREACHES = 362
 END OF SFR DIMENSIONS

 IC -- INITIAL CONDITIONS PACKAGE, VERSION 8, 3/28/2015 INPUT READ FROM UNIT 1006
 PROCESSING GRIDDATA

 OPENED ./external/strt0.dat
 FILE TYPE:OPEN/CLOSE   UNIT 1043   STATUS:OLD                 
 FORMAT:FORMATTED              ACCESS:SEQUENTIAL          
 ACTION:READ                


 OPENED ./external/strt1.dat
 FILE TYPE:OPEN/CLOSE   UNIT 1044   STATUS:OLD                 
 FORMAT:FORMATTED              ACCESS:SEQUENTIAL          
 ACTION:READ                


 OPENED ./external/strt2.dat
 FILE TYPE:OPEN/CLOSE   UNIT 1045   STATUS:OLD                 
 FORMAT:FORMATTED              ACCESS:SEQUENTIAL          
 ACTION:READ                


 OPENED ./external/strt3.dat
 FILE TYPE:OPEN/CLOSE   UNIT 1046   STATUS:OLD                 
 FORMAT:FORMATTED              ACCESS:SEQUENTIAL          
 ACTION:READ                


 OPENED ./external/strt4.dat
 FILE TYPE:OPEN/CLOSE   UNIT 1047   STATUS:OLD                 
 FORMAT:FORMATTED              ACCESS:SEQUENTIAL          
 ACTION:READ                


 OPENED ./external/strt5.dat
 FILE TYPE:OPEN/CLOSE   UNIT 1048   STATUS:OLD                 
 FORMAT:FORMATTED              ACCESS:SEQUENTIAL          
 ACTION:READ                


 OPENED ./external/strt6.dat
 FILE TYPE:OPEN/CLOSE   UNIT 1049   STATUS:OLD                 
 FORMAT:FORMATTED              ACCESS:SEQUENTIAL          
 ACTION:READ                


 OPENED ./external/strt7.dat
 FILE TYPE:OPEN/CLOSE   UNIT 1050   STATUS:OLD                 
 FORMAT:FORMATTED              ACCESS:SEQUENTIAL          
 ACTION:READ                


 OPENED ./external/strt8.dat
 FILE TYPE:OPEN/CLOSE   UNIT 1051   STATUS:OLD                 
 FORMAT:FORMATTED              ACCESS:SEQUENTIAL          
 ACTION:READ                


 OPENED ./external/strt9.dat
 FILE TYPE:OPEN/CLOSE   UNIT 1052   STATUS:OLD                 
 FORMAT:FORMATTED              ACCESS:SEQUENTIAL          
 ACTION:READ                


 OPENED ./external/strt10.dat
 FILE TYPE:OPEN/CLOSE   UNIT 1053   STATUS:OLD                 
 FORMAT:FORMATTED              ACCESS:SEQUENTIAL          
 ACTION:READ                


 OPENED ./external/strt11.dat
 FILE TYPE:OPEN/CLOSE   UNIT 1054   STATUS:OLD                 
 FORMAT:FORMATTED              ACCESS:SEQUENTIAL          
 ACTION:READ                


 OPENED ./external/strt12.dat
 FILE TYPE:OPEN/CLOSE   UNIT 1055   STATUS:OLD                 
 FORMAT:FORMATTED              ACCESS:SEQUENTIAL          
 ACTION:READ                

 END PROCESSING GRIDDATA
 PROCESSING GRIDDATA

                ICELLTYPE = 1

 OPENED ./external/k0.dat
 FILE TYPE:OPEN/CLOSE   UNIT 1056   STATUS:OLD                 
 FORMAT:FORMATTED              ACCESS:SEQUENTIAL          
 ACTION:READ                


 OPENED ./external/k1.dat
 FILE TYPE:OPEN/CLOSE   UNIT 1057   STATUS:OLD                 
 FORMAT:FORMATTED              ACCESS:SEQUENTIAL          
 ACTION:READ                


 OPENED ./external/k2.dat
 FILE TYPE:OPEN/CLOSE   UNIT 1058   STATUS:OLD                 
 FORMAT:FORMATTED              ACCESS:SEQUENTIAL          
 ACTION:READ                


 OPENED ./external/k3.dat
 FILE TYPE:OPEN/CLOSE   UNIT 1059   STATUS:OLD                 
 FORMAT:FORMATTED              ACCESS:SEQUENTIAL          
 ACTION:READ                


 OPENED ./external/k4.dat
 FILE TYPE:OPEN/CLOSE   UNIT 1060   STATUS:OLD                 
 FORMAT:FORMATTED              ACCESS:SEQUENTIAL          
 ACTION:READ                


 OPENED ./external/k5.dat
 FILE TYPE:OPEN/CLOSE   UNIT 1061   STATUS:OLD                 
 FORMAT:FORMATTED              ACCESS:SEQUENTIAL          
 ACTION:READ                


 OPENED ./external/k6.dat
 FILE TYPE:OPEN/CLOSE   UNIT 1062   STATUS:OLD                 
 FORMAT:FORMATTED              ACCESS:SEQUENTIAL          
 ACTION:READ                


 OPENED ./external/k7.dat
 FILE TYPE:OPEN/CLOSE   UNIT 1063   STATUS:OLD                 
 FORMAT:FORMATTED              ACCESS:SEQUENTIAL          
 ACTION:READ                


 OPENED ./external/k8.dat
 FILE TYPE:OPEN/CLOSE   UNIT 1064   STATUS:OLD                 
 FORMAT:FORMATTED              ACCESS:SEQUENTIAL          
 ACTION:READ                


 OPENED ./external/k9.dat
 FILE TYPE:OPEN/CLOSE   UNIT 1065   STATUS:OLD                 
 FORMAT:FORMATTED              ACCESS:SEQUENTIAL          
 ACTION:READ                


 OPENED ./external/k10.dat
 FILE TYPE:OPEN/CLOSE   UNIT 1066   STATUS:OLD                 
 FORMAT:FORMATTED              ACCESS:SEQUENTIAL          
 ACTION:READ                


 OPENED ./external/k11.dat
 FILE TYPE:OPEN/CLOSE   UNIT 1067   STATUS:OLD                 
 FORMAT:FORMATTED              ACCESS:SEQUENTIAL          
 ACTION:READ                


 OPENED ./external/k12.dat
 FILE TYPE:OPEN/CLOSE   UNIT 1068   STATUS:OLD                 
 FORMAT:FORMATTED              ACCESS:SEQUENTIAL          
 ACTION:READ                


 OPENED ./external/k330.dat
 FILE TYPE:OPEN/CLOSE   UNIT 1069   STATUS:OLD                 
 FORMAT:FORMATTED              ACCESS:SEQUENTIAL          
 ACTION:READ                


 OPENED ./external/k331.dat
 FILE TYPE:OPEN/CLOSE   UNIT 1070   STATUS:OLD                 
 FORMAT:FORMATTED              ACCESS:SEQUENTIAL          
 ACTION:READ                


 OPENED ./external/k332.dat
 FILE TYPE:OPEN/CLOSE   UNIT 1071   STATUS:OLD                 
 FORMAT:FORMATTED              ACCESS:SEQUENTIAL          
 ACTION:READ                


 OPENED ./external/k333.dat
 FILE TYPE:OPEN/CLOSE   UNIT 1072   STATUS:OLD                 
 FORMAT:FORMATTED              ACCESS:SEQUENTIAL          
 ACTION:READ                


 OPENED ./external/k334.dat
 FILE TYPE:OPEN/CLOSE   UNIT 1073   STATUS:OLD                 
 FORMAT:FORMATTED              ACCESS:SEQUENTIAL          
 ACTION:READ                


 OPENED ./external/k335.dat
 FILE TYPE:OPEN/CLOSE   UNIT 1074   STATUS:OLD                 
 FORMAT:FORMATTED              ACCESS:SEQUENTIAL          
 ACTION:READ                


 OPENED ./external/k336.dat
 FILE TYPE:OPEN/CLOSE   UNIT 1075   STATUS:OLD                 
 FORMAT:FORMATTED              ACCESS:SEQUENTIAL          
 ACTION:READ                


 OPENED ./external/k337.dat
 FILE TYPE:OPEN/CLOSE   UNIT 1076   STATUS:OLD                 
 FORMAT:FORMATTED              ACCESS:SEQUENTIAL          
 ACTION:READ                


 OPENED ./external/k338.dat
 FILE TYPE:OPEN/CLOSE   UNIT 1077   STATUS:OLD                 
 FORMAT:FORMATTED              ACCESS:SEQUENTIAL          
 ACTION:READ                


 OPENED ./external/k339.dat
 FILE TYPE:OPEN/CLOSE   UNIT 1078   STATUS:OLD                 
 FORMAT:FORMATTED              ACCESS:SEQUENTIAL          
 ACTION:READ                


 OPENED ./external/k3310.dat
 FILE TYPE:OPEN/CLOSE   UNIT 1079   STATUS:OLD                 
 FORMAT:FORMATTED              ACCESS:SEQUENTIAL          
 ACTION:READ                


 OPENED ./external/k3311.dat
 FILE TYPE:OPEN/CLOSE   UNIT 1080   STATUS:OLD                 
 FORMAT:FORMATTED              ACCESS:SEQUENTIAL          
 ACTION:READ                


 OPENED ./external/k3312.dat
 FILE TYPE:OPEN/CLOSE   UNIT 1081   STATUS:OLD                 
 FORMAT:FORMATTED              ACCESS:SEQUENTIAL          
 ACTION:READ                

 K22 not provided.  Assuming K22 = K.
 END PROCESSING GRIDDATA

 STO -- STORAGE PACKAGE, VERSION 1, 5/19/2014 INPUT READ FROM UNIT 1008


 PROCESSING STORAGE OPTIONS
    CELL-BY-CELL FLOW INFORMATION WILL BE SAVED TO BINARY FILE WHENEVER ICBCFL IS NOT ZERO.
 END OF STORAGE OPTIONS
 PROCESSING GRIDDATA

                 ICONVERT = 1

 OPENED ./external/ss0.dat
 FILE TYPE:OPEN/CLOSE   UNIT 1082   STATUS:OLD                 
 FORMAT:FORMATTED              ACCESS:SEQUENTIAL          
 ACTION:READ                


 OPENED ./external/ss1.dat
 FILE TYPE:OPEN/CLOSE   UNIT 1083   STATUS:OLD                 
 FORMAT:FORMATTED              ACCESS:SEQUENTIAL          
 ACTION:READ                


 OPENED ./external/ss2.dat
 FILE TYPE:OPEN/CLOSE   UNIT 1084   STATUS:OLD                 
 FORMAT:FORMATTED              ACCESS:SEQUENTIAL          
 ACTION:READ                


 OPENED ./external/ss3.dat
 FILE TYPE:OPEN/CLOSE   UNIT 1085   STATUS:OLD                 
 FORMAT:FORMATTED              ACCESS:SEQUENTIAL          
 ACTION:READ                


 OPENED ./external/ss4.dat
 FILE TYPE:OPEN/CLOSE   UNIT 1086   STATUS:OLD                 
 FORMAT:FORMATTED              ACCESS:SEQUENTIAL          
 ACTION:READ                


 OPENED ./external/ss5.dat
 FILE TYPE:OPEN/CLOSE   UNIT 1087   STATUS:OLD                 
 FORMAT:FORMATTED              ACCESS:SEQUENTIAL          
 ACTION:READ                


 OPENED ./external/ss6.dat
 FILE TYPE:OPEN/CLOSE   UNIT 1088   STATUS:OLD                 
 FORMAT:FORMATTED              ACCESS:SEQUENTIAL          
 ACTION:READ                


 OPENED ./external/ss7.dat
 FILE TYPE:OPEN/CLOSE   UNIT 1089   STATUS:OLD                 
 FORMAT:FORMATTED              ACCESS:SEQUENTIAL          
 ACTION:READ                


 OPENED ./external/ss8.dat
 FILE TYPE:OPEN/CLOSE   UNIT 1090   STATUS:OLD                 
 FORMAT:FORMATTED              ACCESS:SEQUENTIAL          
 ACTION:READ                


 OPENED ./external/ss9.dat
 FILE TYPE:OPEN/CLOSE   UNIT 1091   STATUS:OLD                 
 FORMAT:FORMATTED              ACCESS:SEQUENTIAL          
 ACTION:READ                


 OPENED ./external/ss10.dat
 FILE TYPE:OPEN/CLOSE   UNIT 1092   STATUS:OLD                 
 FORMAT:FORMATTED              ACCESS:SEQUENTIAL          
 ACTION:READ                


 OPENED ./external/ss11.dat
 FILE TYPE:OPEN/CLOSE   UNIT 1093   STATUS:OLD                 
 FORMAT:FORMATTED              ACCESS:SEQUENTIAL          
 ACTION:READ                


 OPENED ./external/ss12.dat
 FILE TYPE:OPEN/CLOSE   UNIT 1094   STATUS:OLD                 
 FORMAT:FORMATTED              ACCESS:SEQUENTIAL          
 ACTION:READ                


 OPENED ./external/sy0.dat
 FILE TYPE:OPEN/CLOSE   UNIT 1095   STATUS:OLD                 
 FORMAT:FORMATTED              ACCESS:SEQUENTIAL          
 ACTION:READ                


 OPENED ./external/sy1.dat
 FILE TYPE:OPEN/CLOSE   UNIT 1096   STATUS:OLD                 
 FORMAT:FORMATTED              ACCESS:SEQUENTIAL          
 ACTION:READ                


 OPENED ./external/sy2.dat
 FILE TYPE:OPEN/CLOSE   UNIT 1097   STATUS:OLD                 
 FORMAT:FORMATTED              ACCESS:SEQUENTIAL          
 ACTION:READ                


 OPENED ./external/sy3.dat
 FILE TYPE:OPEN/CLOSE   UNIT 1098   STATUS:OLD                 
 FORMAT:FORMATTED              ACCESS:SEQUENTIAL          
 ACTION:READ                


 OPENED ./external/sy4.dat
 FILE TYPE:OPEN/CLOSE   UNIT 1099   STATUS:OLD                 
 FORMAT:FORMATTED              ACCESS:SEQUENTIAL          
 ACTION:READ                


 OPENED ./external/sy5.dat
 FILE TYPE:OPEN/CLOSE   UNIT 1100   STATUS:OLD                 
 FORMAT:FORMATTED              ACCESS:SEQUENTIAL          
 ACTION:READ                


 OPENED ./external/sy6.dat
 FILE TYPE:OPEN/CLOSE   UNIT 1101   STATUS:OLD                 
 FORMAT:FORMATTED              ACCESS:SEQUENTIAL          
 ACTION:READ                


 OPENED ./external/sy7.dat
 FILE TYPE:OPEN/CLOSE   UNIT 1102   STATUS:OLD                 
 FORMAT:FORMATTED              ACCESS:SEQUENTIAL          
 ACTION:READ                


 OPENED ./external/sy8.dat
 FILE TYPE:OPEN/CLOSE   UNIT 1103   STATUS:OLD                 
 FORMAT:FORMATTED              ACCESS:SEQUENTIAL          
 ACTION:READ                


 OPENED ./external/sy9.dat
 FILE TYPE:OPEN/CLOSE   UNIT 1104   STATUS:OLD                 
 FORMAT:FORMATTED              ACCESS:SEQUENTIAL          
 ACTION:READ                


 OPENED ./external/sy10.dat
 FILE TYPE:OPEN/CLOSE   UNIT 1105   STATUS:OLD                 
 FORMAT:FORMATTED              ACCESS:SEQUENTIAL          
 ACTION:READ                


 OPENED ./external/sy11.dat
 FILE TYPE:OPEN/CLOSE   UNIT 1106   STATUS:OLD                 
 FORMAT:FORMATTED              ACCESS:SEQUENTIAL          
 ACTION:READ                


 OPENED ./external/sy12.dat
 FILE TYPE:OPEN/CLOSE   UNIT 1107   STATUS:OLD                 
 FORMAT:FORMATTED              ACCESS:SEQUENTIAL          
 ACTION:READ                

 END PROCESSING GRIDDATA
    BINARY GRID INFORMATION WILL BE WRITTEN TO:
      UNIT NUMBER: 1108
      FILE NAME: shellmound.dis.grb

 OPENED shellmound.dis.grb
 FILE TYPE:DATA(BINARY)   UNIT 1108   STATUS:REPLACE             
 FORMAT:UNFORMATTED            ACCESS:STREAM              
 ACTION:READWRITE           

      THE LAST TIME STEP WILL BE PRINTED
      THE LAST TIME STEP WILL BE PRINTED
 PROCESSING OC OPTIONS
    BUDGET INFORMATION WILL BE WRITTEN TO:
      UNIT NUMBER: 1109
      FILE NAME: shellmound.cbc

 OPENED shellmound.cbc
 FILE TYPE:DATA(BINARY)   UNIT 1109   STATUS:REPLACE             
 FORMAT:UNFORMATTED            ACCESS:STREAM              
 ACTION:READWRITE           

    HEAD INFORMATION WILL BE WRITTEN TO:
      UNIT NUMBER: 1110
      FILE NAME: shellmound.hds

 OPENED shellmound.hds
 FILE TYPE:DATA(BINARY)   UNIT 1110   STATUS:REPLACE             
 FORMAT:UNFORMATTED            ACCESS:STREAM              
 ACTION:READWRITE           

 END OF OC OPTIONS
 #rno k i j rlen rwid rgrd rtp rbth rhk man ncon ustrf ndv

 PROCESSING SFR PACKAGEDATA
 END OF SFR PACKAGEDATA

 PROCESSING SFR CONNECTIONDATA
 END OF SFR CONNECTIONDATA


SFR STATIC REACH DATA
     REACH CELLID                            LENGTH      WIDTH      SLOPE        TOP  THICKNESS         HK  ROUGHNESS  USTR FRAC
--------------------------------------------------------------------------------------------------------------------------------
         1 (4,2,16)                        238.6504     3.2726  0.100E-03    37.7213     1.0000   1.00      0.370E-01     1.0000
         2 (4,3,16)                       1232.5746     3.3228  0.100E-03    37.7213     1.0000   1.00      0.370E-01     1.0000
         3 (4,4,16)                        221.9788     3.3724  0.100E-03    37.7213     1.0000   1.00      0.370E-01     1.0000
         4 (4,4,15)                        793.9577     3.4070  0.106E-03    37.7213     1.0000   1.00      0.370E-01     1.0000
         5 (4,4,15)                        273.1395     3.6709  0.800E-03    37.6370     1.0000   1.00      0.370E-01     1.0000
         6 (4,5,15)                        434.4023     3.6929  0.701E-03    37.4184     1.0000   1.00      0.370E-01     1.0000
         7 (4,5,14)                        551.2985     3.7234  0.753E-03    37.1139     1.0000   1.00      0.370E-01     1.0000
         8 (4,2,12)                        211.9359    17.5827  0.100E-03    35.3466     1.0000   1.00      0.370E-01     1.0000
         9 (4,2,11)                        855.2023    17.5944  0.100E-03    35.3466     1.0000   1.00      0.370E-01     1.0000
        10 (4,3,11)                       1161.7445    17.6165  0.100E-03    35.3466     1.0000   1.00      0.370E-01     1.0000
        11 (4,4,11)                        770.6988    17.6377  0.100E-03    35.3466     1.0000   1.00      0.370E-01     1.0000
        12 (4,5,14)                        676.1050     3.8968  0.402E-03    36.6987     1.0000   1.00      0.370E-01     1.0000
        13 (4,5,13)                         75.2504     3.9189  0.110E-02    36.4266     1.0000   1.00      0.370E-01     1.0000
        14 (4,6,13)                        152.4787     3.9256  0.369E-02    36.3441     1.0000   1.00      0.370E-01     1.0000
        15 (4,4,11)                        232.6385    17.6478  0.100E-03    35.3466     1.0000   1.00      0.370E-01     1.0000
        16 (4,4,12)                        519.1943    17.6530  0.100E-03    35.3466     1.0000   1.00      0.370E-01     1.0000
        17 (4,5,12)                       1165.6306    17.6646  0.100E-03    35.3466     1.0000   1.00      0.370E-01     1.0000
        18 (4,6,13)                        258.4238     4.0394  0.208E-02    35.7810     1.0000   1.00      0.370E-01     1.0000
        19 (4,5,12)                        160.8580    17.7107  0.262E-03    35.3248     1.0000   1.00      0.370E-01     1.0000
        20 (4,6,12)                        150.6801    17.7128  0.304E-03    35.2827     1.0000   1.00      0.370E-01     1.0000
        21 (4,6,13)                        187.9400    17.7151  0.214E-03    35.2369     1.0000   1.00      0.370E-01     1.0000
        22 (4,6,13)                        564.0291    18.3674  0.100E-03    35.2423     1.0000   1.00      0.370E-01     1.0000
        23 (4,2,7)                        1223.4786    18.9961  0.294E-03    33.3741     1.0000   1.00      0.370E-01     1.0000
        24 (4,2,8)                         432.2122    19.0161  0.218E-03    33.0139     1.0000   1.00      0.370E-01     1.0000
        25 (4,6,13)                        179.5244    18.5027  0.471E-03    35.1967     1.0000   1.00      0.370E-01     1.0000
        26 (4,6,12)                        849.7426    18.5095  0.127E-03    35.1122     1.0000   1.00      0.370E-01     1.0000
        27 (4,7,12)                        463.5571    18.5182  0.283E-03    35.0044     1.0000   1.00      0.370E-01     1.0000
        28 (4,7,11)                       1134.8866    18.5287  0.166E-03    34.8732     1.0000   1.00      0.370E-01     1.0000
        29 (4,8,11)                       1165.3746    18.5439  0.229E-03    34.6843     1.0000   1.00      0.370E-01     1.0000
        30 (4,2,8)                         160.4805    19.4214  0.100E-03    32.9199     1.0000   1.00      0.370E-01     1.0000
        31 (4,3,8)                        1066.5188    19.4292  0.100E-03    32.9199     1.0000   1.00      0.370E-01     1.0000
        32 (4,4,8)                         720.3323    19.4405  0.100E-03    32.9199     1.0000   1.00      0.370E-01     1.0000
        33 (4,4,7)                         481.5163    19.4481  0.100E-03    32.9199     1.0000   1.00      0.370E-01     1.0000
        34 (1,5,7)                         870.5771    19.4566  0.100E-03    32.9199     1.0000   1.00      0.370E-01     1.0000
        35 (1,5,6)                         913.1268    19.4679  0.100E-03    32.9199     1.0000   1.00      0.370E-01     1.0000
        36 (4,9,11)                        136.0935    18.5564  0.349E-02    34.4174     1.0000   1.00      0.370E-01     1.0000
        37 (4,9,10)                        241.5623    18.5590  0.126E-02    33.9421     1.0000   1.00      0.370E-01     1.0000
        38 (1,6,6)                         324.3902    19.4757  0.100E-03    32.9199     1.0000   1.00      0.370E-01     1.0000
        39 (1,6,5)                         506.0106    19.4809  0.100E-03    32.9199     1.0000   1.00      0.370E-01     1.0000
        40 (4,9,10)                        489.6241    18.5639  0.100E-03    33.6380     1.0000   1.00      0.370E-01     1.0000
        41 (1,6,5)                         640.0313    19.5351  0.100E-03    32.9199     1.0000   1.00      0.370E-01     1.0000
        42 (4,9,10)                        254.3504    18.7930  0.100E-03    33.6250     1.0000   1.00      0.370E-01     1.0000
        43 (4,10,10)                       153.7337    18.7957  0.100E-03    33.6041     1.0000   1.00      0.370E-01     1.0000
        44 (1,6,4)                        1021.2361    19.6375  0.100E-03    32.9199     1.0000   1.00      0.370E-01     1.0000
        45 (1,7,4)                         883.4469    19.6495  0.100E-03    32.9199     1.0000   1.00      0.370E-01     1.0000
        46 (4,10,10)                       577.2553    18.8287  0.100E-03    33.5909     1.0000   1.00      0.370E-01     1.0000
        47 (4,10,11)                       553.9640    18.8361  0.100E-03    33.5804     1.0000   1.00      0.370E-01     1.0000
        48 (4,11,11)                       223.7127    18.8411  0.159E-03    33.5732     1.0000   1.00      0.370E-01     1.0000
        49 (1,7,4)                         521.1865    19.8080  0.100E-03    32.9199     1.0000   1.00      0.370E-01     1.0000
        50 (1,8,4)                         450.5481    19.8140  0.100E-03    32.9199     1.0000   1.00      0.370E-01     1.0000
        51 (1,8,3)                         439.6758    19.8195  0.100E-03    32.9199     1.0000   1.00      0.370E-01     1.0000
        52 (4,11,11)                        74.2954    18.9820  0.540E-03    33.5378     1.0000   1.00      0.370E-01     1.0000
        53 (4,11,23)                       636.6879     4.0222  0.100E-03    38.2727     1.0000   1.00      0.370E-01     1.0000
        54 (4,10,22)                       395.8705     4.0513  0.100E-03    38.2727     1.0000   1.00      0.370E-01     1.0000
        55 (4,11,22)                      1108.6530     4.0938  0.100E-03    38.2727     1.0000   1.00      0.370E-01     1.0000
        56 (4,12,22)                       227.2196     4.1315  0.100E-03    38.2727     1.0000   1.00      0.370E-01     1.0000
        57 (4,12,21)                      1150.3140     4.1704  0.100E-03    38.2727     1.0000   1.00      0.370E-01     1.0000
        58 (4,12,20)                       613.5312     4.2202  0.100E-03    38.2727     1.0000   1.00      0.370E-01     1.0000
        59 (1,8,3)                         400.0442    19.8454  0.100E-03    32.9199     1.0000   1.00      0.370E-01     1.0000
        60 (1,8,4)                          82.1683    19.8484  0.100E-03    32.9199     1.0000   1.00      0.370E-01     1.0000
        61 (1,9,4)                        1804.2799    19.8600  0.100E-03    32.9199     1.0000   1.00      0.370E-01     1.0000
        62 (1,10,4)                         68.2831    19.8716  0.100E-03    32.9199     1.0000   1.00      0.370E-01     1.0000
        63 (1,10,5)                       1651.1492    19.8822  0.100E-03    32.9199     1.0000   1.00      0.370E-01     1.0000
        64 (4,11,11)                      1053.5045    18.9893  0.100E-03    33.4977     1.0000   1.00      0.370E-01     1.0000
        65 (4,11,12)                       211.0589    18.9974  0.100E-03    33.4896     1.0000   1.00      0.370E-01     1.0000
        66 (4,12,20)                       656.8548     4.3492  0.108E-03    38.2459     1.0000   1.00      0.370E-01     1.0000
        67 (4,11,19)                      1086.1262     4.3958  0.100E-03    38.1746     1.0000   1.00      0.370E-01     1.0000
        68 (4,11,18)                       636.4053     4.4418  0.409E-03    38.1042     1.0000   1.00      0.370E-01     1.0000
        69 (1,10,5)                        222.7440    19.8937  0.100E-03    32.9199     1.0000   1.00      0.370E-01     1.0000
        70 (1,11,5)                        487.3536    19.8981  0.100E-03    32.9199     1.0000   1.00      0.370E-01     1.0000
        71 (1,11,6)                        312.1024    19.9030  0.100E-03    32.9199     1.0000   1.00      0.370E-01     1.0000
        72 (1,11,5)                        203.5491    19.9062  0.100E-03    32.9199     1.0000   1.00      0.370E-01     1.0000
        73 (1,11,6)                        263.0540    19.9091  0.100E-03    32.9199     1.0000   1.00      0.370E-01     1.0000
        74 (1,12,6)                       1228.1797    19.9183  0.100E-03    32.9199     1.0000   1.00      0.370E-01     1.0000
        75 (1,12,7)                        651.9772    19.9299  0.100E-03    32.9199     1.0000   1.00      0.370E-01     1.0000
        76 (1,13,7)                        180.4626    19.9351  0.100E-03    32.9199     1.0000   1.00      0.370E-01     1.0000
        77 (1,13,6)                        827.8507    19.9413  0.100E-03    32.9199     1.0000   1.00      0.370E-01     1.0000
        78 (4,11,12)                       154.7614    19.0452  0.100E-03    33.4883     1.0000   1.00      0.370E-01     1.0000
        79 (4,11,18)                       173.6006     4.6689  0.175E-02    37.8436     1.0000   1.00      0.370E-01     1.0000
        80 (4,18,22)                       223.7262     2.9556  0.100E-03    36.7502     1.0000   1.00      0.370E-01     1.0000
        81 (4,19,22)                       311.5249     2.9761  0.387E-03    36.7502     1.0000   1.00      0.370E-01     1.0000
        82 (1,13,7)                        308.3872    22.0201  0.100E-03    32.9199     1.0000   1.00      0.370E-01     1.0000
        83 (1,14,7)                        408.7852    22.0241  0.100E-03    32.9199     1.0000   1.00      0.370E-01     1.0000
        84 (1,13,7)                       1011.4173    22.0320  0.100E-03    32.9199     1.0000   1.00      0.370E-01     1.0000
        85 (4,13,8)                        750.8870    22.0418  0.100E-03    32.9199     1.0000   1.00      0.370E-01     1.0000
        86 (4,12,8)                        585.7987    22.0493  0.100E-03    32.9199     1.0000   1.00      0.370E-01     1.0000
        87 (4,12,9)                       1303.6846    22.0598  0.100E-03    32.9199     1.0000   1.00      0.370E-01     1.0000
        88 (4,13,9)                        361.3985    22.0691  0.100E-03    32.9199     1.0000   1.00      0.370E-01     1.0000
        89 (4,13,10)                       282.5738    22.0727  0.100E-03    32.9199     1.0000   1.00      0.370E-01     1.0000
        90 (4,12,10)                       660.7905    22.0779  0.100E-03    32.9199     1.0000   1.00      0.370E-01     1.0000
        91 (4,13,10)                      1019.8474    22.0873  0.100E-03    32.9199     1.0000   1.00      0.370E-01     1.0000
        92 (4,13,11)                       402.2253    22.0952  0.100E-03    32.9199     1.0000   1.00      0.370E-01     1.0000
        93 (4,12,12)                      1043.7516    19.7189  0.100E-03    33.4807     1.0000   1.00      0.370E-01     1.0000
        94 (4,13,12)                        60.3523    19.7257  0.114E-03    33.4728     1.0000   1.00      0.370E-01     1.0000
        95 (4,13,11)                       892.4386    19.7316  0.612E-03    33.4659     1.0000   1.00      0.370E-01     1.0000
        96 (4,11,14)                       367.4394     4.0574  0.100E-03    36.7067     1.0000   1.00      0.370E-01     1.0000
        97 (4,11,13)                       547.9275     4.0832  0.530E-03    36.7067     1.0000   1.00      0.370E-01     1.0000
        98 (4,9,15)                        307.9878     3.2415  0.652E-03    37.2788     1.0000   1.00      0.370E-01     1.0000
        99 (4,10,15)                      1010.9620     3.2881  0.221E-03    37.0779     1.0000   1.00      0.370E-01     1.0000
       100 (4,11,15)                       458.5476     3.3400  0.216E-03    36.8540     1.0000   1.00      0.370E-01     1.0000
       101 (4,11,16)                       192.9567     3.3630  0.450E-03    36.7548     1.0000   1.00      0.370E-01     1.0000
       102 (4,11,18)                       451.7770     5.1537  0.522E-03    37.5405     1.0000   1.00      0.370E-01     1.0000
       103 (4,10,17)                      1103.2919     5.1885  0.171E-03    37.3046     1.0000   1.00      0.370E-01     1.0000
       104 (4,10,16)                       140.0418     5.2164  0.147E-02    37.1160     1.0000   1.00      0.370E-01     1.0000
       105 (4,11,16)                      1217.9365     5.2468  0.199E-03    36.9101     1.0000   1.00      0.370E-01     1.0000
       106 (4,10,25)                      1072.6873     3.4200  0.100E-03    36.6104     1.0000   1.00      0.370E-01     1.0000
       107 (4,10,26)                      1053.1478     3.4929  0.100E-03    36.6104     1.0000   1.00      0.370E-01     1.0000
       108 (4,19,22)                       444.3933     3.2255  0.313E-03    36.6297     1.0000   1.00      0.370E-01     1.0000
       109 (4,13,11)                       671.1997    22.7564  0.100E-03    32.9199     1.0000   1.00      0.370E-01     1.0000
       110 (4,14,11)                      1238.3945    22.7667  0.100E-03    32.9199     1.0000   1.00      0.370E-01     1.0000
       111 (4,14,12)                      1502.2920    22.7815  0.100E-03    32.9199     1.0000   1.00      0.370E-01     1.0000
       112 (4,11,13)                       595.6730     4.3042  0.550E-03    36.4162     1.0000   1.00      0.370E-01     1.0000
       113 (4,11,12)                        76.2918     4.3222  0.154E-02    36.0885     1.0000   1.00      0.370E-01     1.0000
       114 (4,11,15)                       363.1725     6.3031  0.374E-03    36.6679     1.0000   1.00      0.370E-01     1.0000
       115 (4,12,15)                       496.1304     6.3193  0.351E-03    36.5321     1.0000   1.00      0.370E-01     1.0000
       116 (4,12,16)                       605.2999     6.3400  0.248E-03    36.3579     1.0000   1.00      0.370E-01     1.0000
       117 (4,13,16)                       342.9565     6.3579  0.188E-02    36.2080     1.0000   1.00      0.370E-01     1.0000
       118 (4,2,34)                        723.0707    61.7201  0.153E-03    37.4236     1.0000   1.00      0.370E-01     1.0000
       119 (4,2,33)                       1110.7822    61.7201  0.116E-03    37.3128     1.0000   1.00      0.370E-01     1.0000
       120 (4,2,32)                       1014.7993    61.7201  0.112E-03    37.1843     1.0000   1.00      0.370E-01     1.0000
       121 (4,2,31)                        870.9343    61.7201  0.100E-03    37.0704     1.0000   1.00      0.370E-01     1.0000
       122 (4,3,31)                        141.8527    61.7201  0.296E-03    37.0092     1.0000   1.00      0.370E-01     1.0000
       123 (4,3,30)                        552.6482    61.7201  0.146E-03    36.9672     1.0000   1.00      0.370E-01     1.0000
       124 (4,2,30)                        778.8255    61.7201  0.100E-03    36.8867     1.0000   1.00      0.370E-01     1.0000
       125 (4,2,29)                        427.6043    61.7201  0.110E-03    36.8138     1.0000   1.00      0.370E-01     1.0000
       126 (4,10,27)                       632.4843     3.7101  0.100E-03    36.6087     1.0000   1.00      0.370E-01     1.0000
       127 (4,9,27)                       1129.0331     3.7625  0.100E-03    36.6041     1.0000   1.00      0.370E-01     1.0000
       128 (4,8,27)                         57.9121     3.7977  0.100E-03    36.6009     1.0000   1.00      0.370E-01     1.0000
       129 (4,8,28)                       1028.5258     3.8300  0.100E-03    36.5981     1.0000   1.00      0.370E-01     1.0000
       130 (4,7,28)                       1017.3345     3.8909  0.100E-03    36.5927     1.0000   1.00      0.370E-01     1.0000
       131 (4,6,28)                       1110.3428     3.9541  0.100E-03    36.5871     1.0000   1.00      0.370E-01     1.0000
       132 (4,5,28)                        147.3212     3.9915  0.100E-03    36.5838     1.0000   1.00      0.370E-01     1.0000
       133 (4,5,29)                        724.5917     4.0174  0.100E-03    36.5815     1.0000   1.00      0.370E-01     1.0000
       134 (4,19,22)                       161.4903     3.5402  0.637E-03    36.4906     1.0000   1.00      0.370E-01     1.0000
       135 (4,19,21)                       737.7571     3.5685  0.275E-03    36.3878     1.0000   1.00      0.370E-01     1.0000
       136 (4,18,21)                      1035.5045     3.6244  0.224E-03    36.1850     1.0000   1.00      0.370E-01     1.0000
       137 (4,17,21)                       991.2617     3.6883  0.122E-03    35.9531     1.0000   1.00      0.370E-01     1.0000
       138 (4,17,20)                        66.7469     3.7217  0.438E-03    35.8321     1.0000   1.00      0.370E-01     1.0000
       139 (4,16,20)                       188.7767     3.7298  0.352E-03    35.8029     1.0000   1.00      0.370E-01     1.0000
       140 (4,14,12)                       156.3618    22.7965  0.100E-03    32.9199     1.0000   1.00      0.370E-01     1.0000
       141 (4,14,13)                       151.5944    22.7982  0.100E-03    32.9199     1.0000   1.00      0.370E-01     1.0000
       142 (4,11,12)                       187.6765    19.2492  0.254E-02    35.9709     1.0000   1.00      0.370E-01     1.0000
       143 (4,12,12)                       923.6305    19.2562  0.556E-03    35.4948     1.0000   1.00      0.370E-01     1.0000
       144 (4,12,13)                       275.0648    19.2638  0.200E-02    34.9812     1.0000   1.00      0.370E-01     1.0000
       145 (4,13,13)                      1010.3420    19.2720  0.795E-03    34.4306     1.0000   1.00      0.370E-01     1.0000
       146 (4,14,13)                       863.7106    19.2839  0.820E-03    33.6277     1.0000   1.00      0.370E-01     1.0000
       147 (4,13,16)                       812.9935     6.5616  0.295E-03    35.5636     1.0000   1.00      0.370E-01     1.0000
       148 (4,13,15)                        55.2610     6.5771  0.404E-02    35.3240     1.0000   1.00      0.370E-01     1.0000
       149 (4,14,15)                       754.4186     6.5915  0.795E-03    35.1005     1.0000   1.00      0.370E-01     1.0000
       150 (4,2,29)                        397.1831    70.0533  0.188E-03    36.7668     1.0000   1.00      0.370E-01     1.0000
       151 (4,3,29)                       1000.3236    70.0533  0.107E-03    36.6923     1.0000   1.00      0.370E-01     1.0000
       152 (4,4,29)                       1001.1531    70.0533  0.100E-03    36.5856     1.0000   1.00      0.370E-01     1.0000
       153 (4,5,29)                        237.2505    70.0533  0.104E-03    36.5196     1.0000   1.00      0.370E-01     1.0000
       154 (4,5,29)                        122.0881    72.4308  0.395E-03    36.5703     1.0000   1.00      0.370E-01     1.0000
       155 (4,16,20)                       952.1229     3.7637  0.100E-03    35.7364     1.0000   1.00      0.370E-01     1.0000
       156 (4,16,19)                      1023.5872     3.8218  0.101E-03    35.6432     1.0000   1.00      0.370E-01     1.0000
       157 (4,16,18)                      1174.2501     3.8864  0.100E-03    35.5395     1.0000   1.00      0.370E-01     1.0000
       158 (4,16,17)                      1244.7539     3.9574  0.100E-03    35.4254     1.0000   1.00      0.370E-01     1.0000
       159 (4,17,17)                      1271.5502     4.0314  0.100E-03    35.3066     1.0000   1.00      0.370E-01     1.0000
       160 (4,18,17)                       294.2260     4.0774  0.491E-03    35.2328     1.0000   1.00      0.370E-01     1.0000
       161 (4,14,13)                       407.3329    22.8364  0.100E-03    32.9199     1.0000   1.00      0.370E-01     1.0000
       162 (4,15,13)                       900.3228    22.8434  0.100E-03    32.9199     1.0000   1.00      0.370E-01     1.0000
       163 (4,15,14)                       558.0950    22.8513  0.100E-03    32.9199     1.0000   1.00      0.370E-01     1.0000
       164 (4,16,14)                       445.7944    22.8567  0.100E-03    32.9199     1.0000   1.00      0.370E-01     1.0000
       165 (4,14,15)                       930.7356     7.2490  0.728E-03    34.5008     1.0000   1.00      0.370E-01     1.0000
       166 (4,15,15)                       679.0383     7.2751  0.631E-03    33.8235     1.0000   1.00      0.370E-01     1.0000
       167 (4,5,29)                        539.9559    73.2471  0.100E-03    36.4950     1.0000   1.00      0.370E-01     1.0000
       168 (4,5,29)                        102.9098    71.9265  0.383E-03    36.5220     1.0000   1.00      0.370E-01     1.0000
       169 (4,18,17)                       373.3161     4.2193  0.101E-02    35.0883     1.0000   1.00      0.370E-01     1.0000
       170 (4,16,14)                       201.6002    22.8972  0.100E-03    32.9199     1.0000   1.00      0.370E-01     1.0000
       171 (4,15,15)                       391.3724     7.3498  0.586E-03    33.3950     1.0000   1.00      0.370E-01     1.0000
       172 (4,16,15)                       237.2808     7.3598  0.700E-03    33.1655     1.0000   1.00      0.370E-01     1.0000
       173 (4,16,14)                       217.7606     7.3671  0.365E-03    32.9994     1.0000   1.00      0.370E-01     1.0000
       174 (4,5,29)                        110.2468    70.3602  0.100E-03    36.4826     1.0000   1.00      0.370E-01     1.0000
       175 (4,5,30)                        784.0626    70.3602  0.100E-03    36.4790     1.0000   1.00      0.370E-01     1.0000
       176 (4,6,30)                        411.3185    70.3602  0.100E-03    36.4741     1.0000   1.00      0.370E-01     1.0000
       177 (4,6,31)                        866.5761    70.3602  0.100E-03    36.4689     1.0000   1.00      0.370E-01     1.0000
       178 (4,7,31)                       1017.5784    70.3602  0.100E-03    36.4613     1.0000   1.00      0.370E-01     1.0000
       179 (4,8,31)                        991.5560    70.3602  0.100E-03    36.4531     1.0000   1.00      0.370E-01     1.0000
       180 (4,18,17)                       438.5083     4.4030  0.201E-02    34.7130     1.0000   1.00      0.370E-01     1.0000
       181 (4,16,14)                        62.7918    23.7571  0.100E-03    32.9199     1.0000   1.00      0.370E-01     1.0000
       182 (4,16,15)                       336.4079    23.7592  0.803E-03    32.9199     1.0000   1.00      0.370E-01     1.0000
       183 (4,8,31)                        199.4940    69.4603  0.125E-03    36.4255     1.0000   1.00      0.370E-01     1.0000
       184 (4,18,16)                      1181.2313     4.5950  0.631E-03    33.8298     1.0000   1.00      0.370E-01     1.0000
       185 (4,17,16)                       197.2023     4.6295  0.302E-02    33.0848     1.0000   1.00      0.370E-01     1.0000
       186 (4,17,15)                       903.3799     4.6571  0.575E-03    32.4900     1.0000   1.00      0.370E-01     1.0000
       187 (4,16,15)                       584.1899    23.7804  0.786E-03    32.6499     1.0000   1.00      0.370E-01     1.0000
       188 (4,17,15)                       408.8842    23.7855  0.538E-03    32.1908     1.0000   1.00      0.370E-01     1.0000
       189 (1,15,6)                        989.1503     2.4059  0.100E-03    35.6992     1.0000   1.00      0.370E-01     1.0000
       190 (1,14,6)                        551.1244     2.4690  0.100E-03    35.6992     1.0000   1.00      0.370E-01     1.0000
       191 (1,14,7)                       1219.3789     2.5416  0.100E-03    35.6992     1.0000   1.00      0.370E-01     1.0000
       192 (1,15,7)                       1220.3386     2.6415  0.100E-03    35.6992     1.0000   1.00      0.370E-01     1.0000
       193 (1,16,7)                        946.3642     2.7303  0.100E-03    35.6992     1.0000   1.00      0.370E-01     1.0000
       194 (1,16,8)                        905.7902     2.8062  0.100E-03    35.6992     1.0000   1.00      0.370E-01     1.0000
       195 (1,17,8)                        531.9229     2.8651  0.100E-03    35.6992     1.0000   1.00      0.370E-01     1.0000
       196 (1,17,9)                       1298.2706     2.9401  0.100E-03    35.6992     1.0000   1.00      0.370E-01     1.0000
       197 (1,18,9)                        340.4915     3.0073  0.100E-03    35.6992     1.0000   1.00      0.370E-01     1.0000
       198 (1,18,10)                       467.7516     3.0404  0.100E-03    35.6992     1.0000   1.00      0.370E-01     1.0000
       199 (4,17,10)                       570.8549     3.0829  0.100E-03    35.6992     1.0000   1.00      0.370E-01     1.0000
       200 (4,17,11)                       794.2573     3.1389  0.440E-03    35.6992     1.0000   1.00      0.370E-01     1.0000
       201 (4,9,31)                         67.2955    68.2097  0.390E-03    36.4006     1.0000   1.00      0.370E-01     1.0000
       202 (4,9,30)                       1174.7940    68.2097  0.100E-03    36.3743     1.0000   1.00      0.370E-01     1.0000
       203 (4,10,30)                       630.2563    68.2097  0.100E-03    36.3362     1.0000   1.00      0.370E-01     1.0000
       204 (4,10,29)                       312.5004    68.2097  0.100E-03    36.3163     1.0000   1.00      0.370E-01     1.0000
       205 (4,17,15)                       838.2556    24.2870  0.100E-03    31.9710     1.0000   1.00      0.370E-01     1.0000
       206 (4,18,15)                       425.4451    24.2934  0.126E-03    31.9246     1.0000   1.00      0.370E-01     1.0000
       207 (4,18,14)                      1034.5969    24.3008  0.100E-03    31.8710     1.0000   1.00      0.370E-01     1.0000
       208 (4,17,11)                       720.1672     3.6397  0.108E-02    35.3496     1.0000   1.00      0.370E-01     1.0000
       209 (4,17,12)                       885.1220     3.6889  0.959E-03    34.5704     1.0000   1.00      0.370E-01     1.0000
       210 (4,18,12)                       863.7497     3.7426  0.115E-02    33.7214     1.0000   1.00      0.370E-01     1.0000
       211 (4,18,13)                      1186.5725     3.8055  0.619E-03    32.7261     1.0000   1.00      0.370E-01     1.0000
       212 (4,18,14)                       326.6164     3.8519  0.496E-03    31.9916     1.0000   1.00      0.370E-01     1.0000
       213 (4,10,29)                       156.4945    65.7250  0.210E-03    36.3053     1.0000   1.00      0.370E-01     1.0000
       214 (4,11,29)                      1013.7859    65.7250  0.100E-03    36.2724     1.0000   1.00      0.370E-01     1.0000
       215 (4,12,29)                       341.3471    65.7250  0.100E-03    36.2344     1.0000   1.00      0.370E-01     1.0000
       216 (4,12,30)                       241.7274    65.7250  0.100E-03    36.2180     1.0000   1.00      0.370E-01     1.0000
       217 (4,18,14)                       157.2610    24.6407  0.100E-03    31.8295     1.0000   1.00      0.370E-01     1.0000
       218 (4,19,14)                       408.8571    24.6435  0.100E-03    31.8170     1.0000   1.00      0.370E-01     1.0000
       219 (4,19,14)                       650.9277    24.6488  0.100E-03    31.7936     1.0000   1.00      0.370E-01     1.0000
       220 (4,12,30)                       601.7600    65.0662  0.100E-03    36.1971     1.0000   1.00      0.370E-01     1.0000
       221 (4,13,30)                       610.0590    65.0662  0.100E-03    36.1687     1.0000   1.00      0.370E-01     1.0000
       222 (4,13,31)                      1055.5736    65.0662  0.100E-03    36.1296     1.0000   1.00      0.370E-01     1.0000
       223 (4,19,14)                       526.4451    24.6697  0.100E-03    31.7715     1.0000   1.00      0.370E-01     1.0000
       224 (4,20,14)                      1433.8779    24.6796  0.100E-03    31.7427     1.0000   1.00      0.370E-01     1.0000
       225 (4,20,13)                      1297.7224    24.6934  0.100E-03    31.7026     1.0000   1.00      0.370E-01     1.0000
       226 (4,20,12)                       324.9500    24.7016  0.100E-03    31.6788     1.0000   1.00      0.370E-01     1.0000
       227 (4,20,13)                       249.6222    24.7045  0.100E-03    31.6703     1.0000   1.00      0.370E-01     1.0000
       228 (1,21,12)                       566.9716    24.7086  0.173E-03    31.6584     1.0000   1.00      0.370E-01     1.0000
       229 (4,13,32)                      1521.1941    67.4876  0.100E-03    36.0892     1.0000   1.00      0.370E-01     1.0000
       230 (4,14,32)                      1066.6396    67.4876  0.100E-03    36.0625     1.0000   1.00      0.370E-01     1.0000
       231 (4,15,32)                      1150.2285    67.4876  0.100E-03    36.0396     1.0000   1.00      0.370E-01     1.0000
       232 (4,16,32)                       634.1929    67.4876  0.100E-03    36.0212     1.0000   1.00      0.370E-01     1.0000
       233 (4,16,31)                      1062.0532    67.4876  0.100E-03    36.0037     1.0000   1.00      0.370E-01     1.0000
       234 (4,17,31)                       164.5422    67.4876  0.100E-03    35.9910     1.0000   1.00      0.370E-01     1.0000
       235 (4,17,30)                       991.9484    67.4876  0.100E-03    35.9791     1.0000   1.00      0.370E-01     1.0000
       236 (4,18,30)                      1116.1199    67.4876  0.100E-03    35.9573     1.0000   1.00      0.370E-01     1.0000
       237 (4,18,29)                       429.1214    67.4876  0.100E-03    35.9414     1.0000   1.00      0.370E-01     1.0000
       238 (4,19,29)                       792.7633    67.4876  0.100E-03    35.9288     1.0000   1.00      0.370E-01     1.0000
       239 (4,19,28)                       737.0662    67.4876  0.100E-03    35.9130     1.0000   1.00      0.370E-01     1.0000
       240 (4,20,28)                       611.3396    67.4876  0.100E-03    35.8991     1.0000   1.00      0.370E-01     1.0000
       241 (4,20,27)                       652.9406    67.4876  0.100E-03    35.8860     1.0000   1.00      0.370E-01     1.0000
       242 (4,21,27)                       422.3956    67.4876  0.100E-03    35.8749     1.0000   1.00      0.370E-01     1.0000
       243 (1,21,12)                       197.0977    24.7125  0.620E-03    31.5605     1.0000   1.00      0.370E-01     1.0000
       244 (4,21,27)                       584.7903    69.1038  0.100E-03    35.8706     1.0000   1.00      0.370E-01     1.0000
       245 (4,22,27)                      1006.7066    69.1038  0.100E-03    35.8706     1.0000   1.00      0.370E-01     1.0000
       246 (4,23,28)                      1204.6381    69.1038  0.100E-03    35.8706     1.0000   1.00      0.370E-01     1.0000
       247 (4,23,29)                       887.9220    69.1038  0.100E-03    35.8706     1.0000   1.00      0.370E-01     1.0000
       248 (1,21,12)                       648.9151    24.7202  0.100E-03    31.4382     1.0000   1.00      0.370E-01     1.0000
       249 (1,22,12)                       583.4713    24.7264  0.100E-03    31.3761     1.0000   1.00      0.370E-01     1.0000
       250 (4,22,13)                       316.5183    24.7309  0.100E-03    31.3307     1.0000   1.00      0.370E-01     1.0000
       251 (1,22,12)                       159.4419    24.7333  0.719E-03    31.3067     1.0000   1.00      0.370E-01     1.0000
       252 (4,23,29)                       157.6371    66.5556  0.100E-03    35.8706     1.0000   1.00      0.370E-01     1.0000
       253 (4,23,30)                      1050.4419    66.5556  0.100E-03    35.8706     1.0000   1.00      0.370E-01     1.0000
       254 (4,22,30)                       602.2264    66.5556  0.100E-03    35.8706     1.0000   1.00      0.370E-01     1.0000
       255 (1,22,12)                       151.2743    24.7348  0.715E-03    31.1919     1.0000   1.00      0.370E-01     1.0000
       256 (4,22,30)                       648.2244    65.4432  0.131E-03    35.8706     1.0000   1.00      0.370E-01     1.0000
       257 (1,22,12)                        66.9530    24.8757  0.100E-03    31.0837     1.0000   1.00      0.370E-01     1.0000
       258 (1,23,12)                        51.0905    24.8763  0.634E-03    31.0810     1.0000   1.00      0.370E-01     1.0000
       259 (4,21,30)                       591.8885    64.1769  0.294E-03    35.7857     1.0000   1.00      0.370E-01     1.0000
       260 (4,21,31)                       623.4580    64.1769  0.345E-03    35.6114     1.0000   1.00      0.370E-01     1.0000
       261 (4,20,31)                       874.9131    64.1769  0.151E-03    35.3965     1.0000   1.00      0.370E-01     1.0000
       262 (1,23,12)                       190.5843    24.9284  0.366E-03    31.0486     1.0000   1.00      0.370E-01     1.0000
       263 (4,20,31)                       172.6732    65.6377  0.100E-03    35.2644     1.0000   1.00      0.370E-01     1.0000
       264 (4,23,13)                       299.5918    24.9310  0.492E-03    30.9789     1.0000   1.00      0.370E-01     1.0000
       265 (4,28,26)                       437.2907     3.1031  0.100E-03    34.7861     1.0000   1.00      0.370E-01     1.0000
       266 (4,28,25)                      1085.5255     3.1574  0.100E-03    34.7861     1.0000   1.00      0.370E-01     1.0000
       267 (4,28,24)                      1137.1465     3.2367  0.100E-03    34.7861     1.0000   1.00      0.370E-01     1.0000
       268 (4,28,23)                       424.4293     3.2924  0.100E-03    34.7861     1.0000   1.00      0.370E-01     1.0000
       269 (4,20,31)                       210.9214    68.0739  0.100E-03    35.2567     1.0000   1.00      0.370E-01     1.0000
       270 (4,20,32)                      1025.4137    68.0739  0.100E-03    35.2505     1.0000   1.00      0.370E-01     1.0000
       271 (4,20,33)                      1129.4949    68.0739  0.100E-03    35.2398     1.0000   1.00      0.370E-01     1.0000
       272 (4,20,34)                       689.3207    68.0739  0.100E-03    35.2306     1.0000   1.00      0.370E-01     1.0000
       273 (4,21,34)                      1067.6577    68.0739  0.100E-03    35.2218     1.0000   1.00      0.370E-01     1.0000
       274 (4,22,34)                       551.4507    68.0739  0.100E-03    35.2137     1.0000   1.00      0.370E-01     1.0000
       275 (4,27,34)                       886.8888    64.7513  0.100E-03    34.1779     1.0000   1.00      0.370E-01     1.0000
       276 (4,23,13)                      1455.5765    24.9413  0.100E-03    30.8315     1.0000   1.00      0.370E-01     1.0000
       277 (4,23,14)                       147.7624    24.9493  0.630E-03    30.7116     1.0000   1.00      0.370E-01     1.0000
       278 (1,24,14)                      1097.1346    24.9554  0.100E-03    30.6184     1.0000   1.00      0.370E-01     1.0000
       279 (1,24,13)                       362.7284    24.9627  0.112E-03    30.5092     1.0000   1.00      0.370E-01     1.0000
       280 (1,25,13)                       180.0624    24.9653  0.211E-03    30.4686     1.0000   1.00      0.370E-01     1.0000
       281 (1,24,13)                       327.4245    24.9679  0.381E-03    30.4306     1.0000   1.00      0.370E-01     1.0000
       282 (1,25,13)                      1340.4170    24.9761  0.100E-03    30.3058     1.0000   1.00      0.370E-01     1.0000
       283 (1,26,13)                       315.4918    24.9843  0.336E-03    30.1819     1.0000   1.00      0.370E-01     1.0000
       284 (4,28,23)                       595.4479     3.3279  0.100E-03    34.7861     1.0000   1.00      0.370E-01     1.0000
       285 (4,28,22)                      1031.8953     3.3836  0.100E-03    34.7861     1.0000   1.00      0.370E-01     1.0000
       286 (4,28,21)                       925.2059     3.4506  0.100E-03    34.7861     1.0000   1.00      0.370E-01     1.0000
       287 (4,22,34)                       666.4489    66.4759  0.131E-03    35.1802     1.0000   1.00      0.370E-01     1.0000
       288 (4,22,33)                      1221.7869    66.4759  0.100E-03    35.0928     1.0000   1.00      0.370E-01     1.0000
       289 (4,23,33)                      1289.4144    66.4759  0.100E-03    34.9767     1.0000   1.00      0.370E-01     1.0000
       290 (4,24,33)                       154.8270    66.4759  0.116E-03    34.9099     1.0000   1.00      0.370E-01     1.0000
       291 (4,27,34)                       125.8615    70.5364  0.100E-03    34.1779     1.0000   1.00      0.370E-01     1.0000
       292 (4,28,34)                       181.3350    70.5364  0.100E-03    34.1779     1.0000   1.00      0.370E-01     1.0000
       293 (4,27,33)                      1184.1481    70.5364  0.100E-03    34.1779     1.0000   1.00      0.370E-01     1.0000
       294 (4,27,32)                       903.9040    70.5364  0.100E-03    34.1779     1.0000   1.00      0.370E-01     1.0000
       295 (1,26,13)                       332.7129    24.9875  0.512E-03    30.0760     1.0000   1.00      0.370E-01     1.0000
       296 (1,26,12)                       355.3222    24.9909  0.319E-03    29.9058     1.0000   1.00      0.370E-01     1.0000
       297 (4,27,21)                      1302.6047     4.5704  0.100E-03    34.7861     1.0000   1.00      0.370E-01     1.0000
       298 (4,27,20)                       523.0718     4.6165  0.100E-03    34.7861     1.0000   1.00      0.370E-01     1.0000
       299 (1,21,3)                        190.3317    31.9068  0.100E-03    30.7956     1.0000   1.00      0.370E-01     1.0000
       300 (1,21,3)                        346.8287    31.9104  0.100E-03    30.7956     1.0000   1.00      0.370E-01     1.0000
       301 (1,22,3)                        327.6383    31.9149  0.100E-03    30.7956     1.0000   1.00      0.370E-01     1.0000
       302 (4,24,33)                       685.7125    67.0630  0.100E-03    34.8920     1.0000   1.00      0.370E-01     1.0000
       303 (4,24,32)                       944.7790    67.0630  0.100E-03    34.8665     1.0000   1.00      0.370E-01     1.0000
       304 (4,25,32)                       129.4960    67.0630  0.195E-03    34.8497     1.0000   1.00      0.370E-01     1.0000
       305 (4,25,31)                      1487.8792    67.0630  0.100E-03    34.8244     1.0000   1.00      0.370E-01     1.0000
       306 (4,26,31)                        53.2799    67.0630  0.308E-03    34.8003     1.0000   1.00      0.370E-01     1.0000
       307 (4,26,30)                       993.7084    67.0630  0.100E-03    34.7839     1.0000   1.00      0.370E-01     1.0000
       308 (4,27,30)                      1046.2805    67.0630  0.100E-03    34.7520     1.0000   1.00      0.370E-01     1.0000
       309 (4,27,32)                       303.7529    69.2766  0.100E-03    34.1779     1.0000   1.00      0.370E-01     1.0000
       310 (1,26,12)                       389.0162    25.0715  0.100E-03    29.7926     1.0000   1.00      0.370E-01     1.0000
       311 (1,27,12)                        64.2270    25.0738  0.648E-03    29.7632     1.0000   1.00      0.370E-01     1.0000
       312 (4,27,20)                       107.1941     4.6323  0.100E-03    34.7851     1.0000   1.00      0.370E-01     1.0000
       313 (4,26,20)                       438.8258     4.6458  0.100E-03    34.7803     1.0000   1.00      0.370E-01     1.0000
       314 (4,26,19)                       376.4787     4.6658  0.100E-03    34.7731     1.0000   1.00      0.370E-01     1.0000
       315 (4,27,19)                       852.2642     4.6961  0.100E-03    34.7623     1.0000   1.00      0.370E-01     1.0000
       316 (4,27,18)                      1059.0656     4.7431  0.100E-03    34.7454     1.0000   1.00      0.370E-01     1.0000
       317 (4,27,17)                       317.7851     4.7769  0.157E-02    34.7333     1.0000   1.00      0.370E-01     1.0000
       318 (4,26,17)                       903.9825     3.9270  0.161E-03    34.9066     1.0000   1.00      0.370E-01     1.0000
       319 (4,27,17)                       235.3759     3.9602  0.224E-02    34.7606     1.0000   1.00      0.370E-01     1.0000
       320 (1,22,3)                        714.1598    31.9199  0.100E-03    30.7956     1.0000   1.00      0.370E-01     1.0000
       321 (1,23,3)                        545.4249    31.9248  0.100E-03    30.7956     1.0000   1.00      0.370E-01     1.0000
       322 (4,28,30)                        62.8275    74.0465  0.444E-02    34.7051     1.0000   1.00      0.370E-01     1.0000
       323 (4,28,31)                       510.8172    74.0465  0.110E-02    34.4262     1.0000   1.00      0.370E-01     1.0000
       324 (4,27,32)                        94.4906    73.4192  0.100E-03    34.1779     1.0000   1.00      0.370E-01     1.0000
       325 (4,28,32)                       850.6508    73.4192  0.100E-03    34.1779     1.0000   1.00      0.370E-01     1.0000
       326 (4,28,31)                       698.3774    73.4192  0.450E-03    34.1779     1.0000   1.00      0.370E-01     1.0000
       327 (1,16,3)                         57.3784    31.6793  0.100E-03    30.7956     1.0000   1.00      0.370E-01     1.0000
       328 (1,17,3)                       1365.5012    31.6880  0.100E-03    30.7956     1.0000   1.00      0.370E-01     1.0000
       329 (1,18,3)                       1317.9648    31.7044  0.100E-03    30.7956     1.0000   1.00      0.370E-01     1.0000
       330 (1,27,12)                       942.0878    25.0787  0.100E-03    29.7216     1.0000   1.00      0.370E-01     1.0000
       331 (4,27,17)                       713.8608     6.2709  0.949E-03    34.2336     1.0000   1.00      0.370E-01     1.0000
       332 (1,23,3)                        773.6043    31.9683  0.100E-03    30.7956     1.0000   1.00      0.370E-01     1.0000
       333 (1,23,4)                        249.2051    31.9723  0.100E-03    30.7956     1.0000   1.00      0.370E-01     1.0000
       334 (1,23,3)                        852.0813    31.9766  0.100E-03    30.7956     1.0000   1.00      0.370E-01     1.0000
       335 (4,28,31)                       551.9517    75.5938  0.100E-02    33.8635     1.0000   1.00      0.370E-01     1.0000
       336 (4,12,34)                       268.4132     2.8514  0.100E-03    37.3462     1.0000   1.00      0.370E-01     1.0000
       337 (4,12,33)                      1370.5671     2.9476  0.100E-03    37.3462     1.0000   1.00      0.370E-01     1.0000
       338 (4,12,34)                       118.4815     3.0350  0.100E-03    37.3462     1.0000   1.00      0.370E-01     1.0000
       339 (4,13,34)                      1086.7421     3.1057  0.100E-02    37.3462     1.0000   1.00      0.370E-01     1.0000
       340 (1,19,3)                       1006.0804    31.7493  0.100E-02    30.7956     1.0000   1.00      0.370E-01     1.0000
       341 (1,28,7)                        794.9203     4.7238  0.100E-02    33.3150     1.0000   1.00      0.370E-01     1.0000
       342 (1,27,12)                       116.2098    25.2381  0.803E-03    29.6480     1.0000   1.00      0.370E-01     1.0000
       343 (1,28,12)                       184.1076    25.2424  0.874E-03    29.5546     1.0000   1.00      0.370E-01     1.0000
       344 (1,28,11)                       333.3601    25.2500  0.113E-02    29.3938     1.0000   1.00      0.370E-01     1.0000
       345 (1,28,12)                       876.9623    25.2676  0.100E-02    29.0174     1.0000   1.00      0.370E-01     1.0000
       346 (4,25,16)                       286.6271     3.0384  0.276E-03    32.6489     1.0000   1.00      0.370E-01     1.0000
       347 (4,26,15)                      1370.1298     3.1225  0.100E-03    32.5699     1.0000   1.00      0.370E-01     1.0000
       348 (1,27,15)                       364.6473     3.2106  0.139E-03    32.4872     1.0000   1.00      0.370E-01     1.0000
       349 (1,27,14)                       700.8624     3.2647  0.116E-03    32.4363     1.0000   1.00      0.370E-01     1.0000
       350 (1,28,14)                      1000.6598     3.3511  0.100E-02    32.3552     1.0000   1.00      0.370E-01     1.0000
       351 (1,26,3)                        445.9215    33.3714  0.100E-03    30.7956     1.0000   1.00      0.370E-01     1.0000
       352 (1,27,3)                        264.7135    33.3821  0.100E-03    30.7956     1.0000   1.00      0.370E-01     1.0000
       353 (1,27,3)                        340.4429    33.3913  0.100E-03    30.7956     1.0000   1.00      0.370E-01     1.0000
       354 (1,28,3)                        588.8991    33.4053  0.100E-03    30.7956     1.0000   1.00      0.370E-01     1.0000
       355 (1,28,3)                        541.9512    33.4224  0.100E-02    30.7956     1.0000   1.00      0.370E-01     1.0000
       356 (1,28,8)                        672.3716     4.7334  0.100E-02    34.7162     1.0000   1.00      0.370E-01     1.0000
       357 (4,27,16)                       906.6547     6.4151  0.411E-03    33.5560     1.0000   1.00      0.370E-01     1.0000
       358 (4,28,16)                       961.4014     6.4548  0.279E-03    33.1835     1.0000   1.00      0.370E-01     1.0000
       359 (1,28,15)                       382.0371     6.4833  0.100E-02    32.9156     1.0000   1.00      0.370E-01     1.0000
       360 (1,28,8)                        878.6050     4.7107  0.100E-03    34.4664     1.0000   1.00      0.370E-01     1.0000
       361 (1,28,9)                       1366.0970     4.7789  0.100E-02    34.4664     1.0000   1.00      0.370E-01     1.0000
       362 (1,23,3)                        247.4144    31.9823  0.100E-02    30.7956     1.0000   1.00      0.370E-01     1.0000
--------------------------------------------------------------------------------------------------------------------------------


SFR REACH CONNECTION DATA
                                                           CONNECTED REACH DATA
REACH    1    2    3    4    5    6    7    8    9   10   11   12   13   14   15   16   17   18   19   20   21   22   23   24                                                                                                                                                                               
--------------------------------------------------------------------------------------------------------------------------------
    1    2
    2    3    1
    3    4    2
    4    5    3
    5    6    4
    6    7    5
    7   12    6
    8    9
    9   10    8
   10   11    9
   11   15   10
   12   13    7
   13   14   12
   14   18   13
   15   16   11
   16   17   15
   17   19   16
   18   22   14
   19   20   17
   20   21   19
   21   25   20
   22   25   18
   23   24
   24   30   23
   25   26   21   22
   26   27   25
   27   28   26
   28   29   27
   29   36   28
   30   31   24
   31   32   30
   32   33   31
   33   34   32
   34   35   33
   35   38   34
   36   37   29
   37   40   36
   38   39   35
   39   41   38
   40   42   37
   41   44   39
   42   43   40
   43   46   42
   44   45   41
   45   49   44
   46   47   43
   47   48   46
   48   52   47
   49   50   45
   50   51   49
   51   59   50
   52   64   48
   53   54
   54   55   53
   55   56   54
   56   57   55
   57   58   56
   58   66   57
   59   60   51
   60   61   59
   61   62   60
   62   63   61
   63   69   62
   64   65   52
   65   78   64
   66   67   58
   67   68   66
   68   79   67
   69   70   63
   70   71   69
   71   72   70
   72   73   71
   73   74   72
   74   75   73
   75   76   74
   76   77   75
   77   82   76
   78   93   65
   79  102   68
   80   81
   81  108   80
   82   83   77
   83   84   82
   84   85   83
   85   86   84
   86   87   85
   87   88   86
   88   89   87
   89   90   88
   90   91   89
   91   92   90
   92  109   91
   93   94   78
   94   95   93
   95  109   94
   96   97
   97  112   96
   98   99
   99  100   98
  100  101   99
  101  114  100
  102  103   79
  103  104  102
  104  105  103
  105  114  104
  106  107
  107  126  106
  108  134   81
  109  110   92   95
  110  111  109
  111  140  110
  112  113   97
  113  142  112
  114  115  101  105
  115  116  114
  116  117  115
  117  147  116
  118  119
  119  120  118
  120  121  119
  121  122  120
  122  123  121
  123  124  122
  124  125  123
  125  150  124
  126  127  107
  127  128  126
  128  129  127
  129  130  128
  130  131  129
  131  132  130
  132  133  131
  133  154  132
  134  135  108
  135  136  134
  136  137  135
  137  138  136
  138  139  137
  139  155  138
  140  141  111
  141  161  140
  142  143  113
  143  144  142
  144  145  143
  145  146  144
  146  161  145
  147  148  117
  148  149  147
  149  165  148
  150  151  125
  151  152  150
  152  153  151
  153  167  152
  154  168  133
  155  156  139
  156  157  155
  157  158  156
  158  159  157
  159  160  158
  160  169  159
  161  162  141  146
  162  163  161
  163  164  162
  164  170  163
  165  166  149
  166  171  165
  167  174  153
  168  174  154
  169  180  160
  170  181  164
  171  172  166
  172  173  171
  173  181  172
  174  175  167  168
  175  176  174
  176  177  175
  177  178  176
  178  179  177
  179  183  178
  180  184  169
  181  182  170  173
  182  187  181
  183  201  179
  184  185  180
  185  186  184
  186  205  185
  187  188  182
  188  205  187
  189  190
  190  191  189
  191  192  190
  192  193  191
  193  194  192
  194  195  193
  195  196  194
  196  197  195
  197  198  196
  198  199  197
  199  200  198
  200  208  199
  201  202  183
  202  203  201
  203  204  202
  204  213  203
  205  206  186  188
  206  207  205
  207  217  206
  208  209  200
  209  210  208
  210  211  209
  211  212  210
  212  217  211
  213  214  204
  214  215  213
  215  216  214
  216  220  215
  217  218  207  212
  218  219  217
  219  223  218
  220  221  216
  221  222  220
  222  229  221
  223  224  219
  224  225  223
  225  226  224
  226  227  225
  227  228  226
  228  243  227
  229  230  222
  230  231  229
  231  232  230
  232  233  231
  233  234  232
  234  235  233
  235  236  234
  236  237  235
  237  238  236
  238  239  237
  239  240  238
  240  241  239
  241  242  240
  242  244  241
  243  248  228
  244  245  242
  245  246  244
  246  247  245
  247  252  246
  248  249  243
  249  250  248
  250  251  249
  251  255  250
  252  253  247
  253  254  252
  254  256  253
  255  257  251
  256  259  254
  257  258  255
  258  262  257
  259  260  256
  260  261  259
  261  263  260
  262  264  258
  263  269  261
  264  276  262
  265  266
  266  267  265
  267  268  266
  268  284  267
  269  270  263
  270  271  269
  271  272  270
  272  273  271
  273  274  272
  274  287  273
  275  291
  276  277  264
  277  278  276
  278  279  277
  279  280  278
  280  281  279
  281  282  280
  282  283  281
  283  295  282
  284  285  268
  285  286  284
  286  297  285
  287  288  274
  288  289  287
  289  290  288
  290  302  289
  291  292  275
  292  293  291
  293  294  292
  294  309  293
  295  296  283
  296  310  295
  297  298  286
  298  312  297
  299  300
  300  301  299
  301  320  300
  302  303  290
  303  304  302
  304  305  303
  305  306  304
  306  307  305
  307  308  306
  308  322  307
  309  324  294
  310  311  296
  311  330  310
  312  313  298
  313  314  312
  314  315  313
  315  316  314
  316  317  315
  317  331  316
  318  319
  319  331  318
  320  321  301
  321  332  320
  322  323  308
  323  335  322
  324  325  309
  325  326  324
  326  335  325
  327  328
  328  329  327
  329  340  328
  330  342  311
  331  357  317  319
  332  333  321
  333  334  332
  334  362  333
  335  323  326
  336  337
  337  338  336
  338  339  337
  339  338
  340  329
  341
  342  343  330
  343  344  342
  344  345  343
  345  344
  346  347
  347  348  346
  348  349  347
  349  350  348
  350  349
  351  352
  352  353  351
  353  354  352
  354  355  353
  355  354
  356
  357  358  331
  358  359  357
  359  358
  360  361
  361  360
  362  334
--------------------------------------------------------------------------------------------------------------------------------


SFR DOWNSTREAM CONNECTIONS
                                                            DOWNSTREAM REACHES
REACH    1    2    3    4    5    6    7    8    9   10   11   12   13   14   15   16   17   18   19   20   21   22   23   24                                                                                                                                                                               
--------------------------------------------------------------------------------------------------------------------------------
    1    2
    2    3
    3    4
    4    5
    5    6
    6    7
    7   12
    8    9
    9   10
   10   11
   11   15
   12   13
   13   14
   14   18
   15   16
   16   17
   17   19
   18   22
   19   20
   20   21
[...]
    140     13     17     24      -240.2    
    141     13     17     26      -218.1    
    142     13     17     27      -274.6    
    143     13     17     32      -132.3    
    144     13     17     34      -132.3    
    145      1     16      3      -3599.    
    146      1     16      5      -4496.    
    147      1     16      6      -3797.    
    148      1     16      8      -3137.    
    149      1     16      9      -2495.    
    150      4     16     11      -2554.    
    151      4     16     13      -2215.    
    152      9     16     14      -1995.    
    153      4     16     16      -1441.    
    154     13     16     18      -1163.    
    155     13     16     19      -2360.    
    156     13     16     21      -1843.    
    157      4     16     22      -997.5    
    158     13     16     24      -274.6    
    159     13     16     26      -529.4    
    160      8     16     27      -132.3    
    161      9     16     32      -66.17    
    162      9     16     34      -66.17    
    163      1     14      3      -2458.    
    164      1     14      5      -4260.    
    165      1     14      6      -3199.    
    166      4     14      8      -2843.    
    167     13     14      9      -1492.    
    168     13     14     11      -674.2    
    169      4     14     13      -2378.    
    170     13     14     14      -2103.    
    171     13     14     16      -1791.    
    172      4     14     18      -1175.    
    173      4     14     19      -1788.    
    174      4     14     21      -3144.    
    175     13     14     22      -928.6    
    176     13     14     24      -40.37    
    177     13     14     27      -132.3    
    178     13     14     29      -463.2    
    179     13     14     30      -132.3    
    180     13     14     32      -264.7    
    181      1     12      3      -1111.    
    182      1     12      5      -3446.    
    183      1     12      6      -3046.    
    184      4     12      8      -2357.    
    185      4     12      9      -1141.    
    186      4     12     11      -2663.    
    187      4     12     13      -1561.    
    188     13     12     14      -929.1    
    189      4     12     16      -323.0    
    190     13     12     18      -161.5    
    191     13     12     19      -1048.    
    192      4     12     21      -2548.    
    193     13     12     22      -480.5    
    194     13     12     26      -66.17    
    195     13     12     29      -1654.    
    196      1     11      3      -3669.    
    197      1     11      5      -3566.    
    198      1     11      6      -1708.    
    199      4     11      8      -2212.    
    200     13     11      9      -2869.    
    201      4     11     11      -556.2    
    202     13     11     13      -1034.    
    203     13     11     14      -3266.    
    204     13     11     16      -2192.    
    205     13     11     18      -514.8    
    206     13     11     19      -458.3    
    207      4     11     21      -1023.    
    208     13     11     22      -68.64    
    209     13     11     24      -66.17    
    210     13     11     29      -132.3    
    211      1      9      3      -3848.    
    212      1      9      5      -2227.    
    213      1      9      6      -3518.    
    214     13      9      8      -1835.    
    215     13      9      9      -1768.    
    216      4      9     11      -1171.    
    217      4      9     13      -1613.    
    218      4      9     14      -1853.    
    219     13      9     16      -446.1    
    220     13      9     18      -926.6    
    221     13      9     19      -652.1    
    222     13      9     24      -132.3    
    223      1      8      3      -3253.    
    224      1      8      5      -2611.    
    225      1      8      6      -2202.    
    226      4      8      8      -1887.    
    227      4      8      9      -2481.    
    228      4      8     11      -1270.    
    229     13      8     13      -1441.    
    230     13      8     14      -446.1    
    231     13      8     19      -595.6    
    232     13      8     21      -66.17    
    233     13      8     22      -132.3    
    234      8      8     30      -66.17    
    235      1      6      3      -2788.    
    236      1      6      5      -1440.    
    237      1      6      6      -2170.    
    238     13      6      8      -3232.    
    239     13      6      9      -2396.    
    240     13      6     11      -2972.    
    241     13      6     13      -1505.    
    242     13      6     18      -215.7    
    243     13      6     24      -132.3    
    244      4      6     26      -34.32    
    245      4      6     27      -789.3    
    246     13      6     34      -198.5    
    247      2      4      3      -565.3    
    248     13      4      5      -1357.    
    249     13      4      6      -2364.    
    250     13      4      8      -1789.    
    251      4      4      9      -522.8    
    252      4      4     11      -355.3    
    253     13      4     13      -847.9    
    254      4      4     19      -1078.    
    255      4      4     21      -2128.    
    256      4      4     22      -575.3    
    257      4      4     26      -137.3    
    258      4      4     27      -1853.    
    259     13      4     30      -66.17    
    260     13      4     34      -149.5    
    261      1      3      3      -1262.    
    262      2      3      5      -1286.    
    263     13      3      6      -904.4    
    264     13      3      8      -1514.    
    265      4      3      9      -1163.    
    266     13      3     11      -730.8    
    267     13      3     13      -361.4    
    268      4      3     19      -2717.    
    269      4      3     21      -2993.    
    270      4      3     22      -892.3    
    271      4      3     24      -1020.    
    272      4      3     26      -1225.    
    273      4      3     27      -514.8    
    274     13      3     32      -132.3    
    275     13      3     34      -66.17    

 OPENED ./external/rch18.dat
 FILE TYPE:OPEN/CLOSE   UNIT 1129   STATUS:OLD                 
 FORMAT:FORMATTED              ACCESS:SEQUENTIAL          
 ACTION:READ                


 REUSING SFRS FROM LAST STRESS PERIOD

 INNER ITERATION SUMMARY
 --------------------------------------------------------------------------------------------------------------------------------
     TOTAL      OUTER     INNER                    MAXIMUM CHANGE        MAXIMUM                  MAXIMUM RESIDUAL        MAXIMUM
 ITERATION  ITERATION ITERATION                    MODEL-(CELLID)         CHANGE                    MODEL-(CELLID)       RESIDUAL
 --------------------------------------------------------------------------------------------------------------------------------
          1         1         1                     1_GWF-(1,2,3) -0.3973969E-01                   1_GWF-(11,22,8)  -68.39576    
          2         1         2                     1_GWF-(1,2,3)  0.1112388E-02                   1_GWF-(11,3,33)  -17.16700    
          3         1         3                     1_GWF-(1,2,3) -0.2197261E-03                   1_GWF-(11,9,33)   8.323671    


 INNER ITERATION SUMMARY
 --------------------------------------------------------------------------------------------------------------------------------
     TOTAL      OUTER     INNER                    MAXIMUM CHANGE        MAXIMUM                  MAXIMUM RESIDUAL        MAXIMUM
 ITERATION  ITERATION ITERATION                    MODEL-(CELLID)         CHANGE                    MODEL-(CELLID)       RESIDUAL
 --------------------------------------------------------------------------------------------------------------------------------
          1         1         1                     1_GWF-(3,2,3) -0.5645954E-01                    1_GWF-(6,3,33)  -85.53855    
          2         1         2                     1_GWF-(3,2,3)  0.1175032E-02                  1_GWF-(11,11,33)   31.41616    
          3         1         3                     1_GWF-(3,2,3) -0.6602584E-03                   1_GWF-(11,9,33)   17.46825    
          4         1         4                     1_GWF-(3,2,3)  0.4790109E-04                   1_GWF-(11,9,33)   14.28363    


 INNER ITERATION SUMMARY
 --------------------------------------------------------------------------------------------------------------------------------
     TOTAL      OUTER     INNER                    MAXIMUM CHANGE        MAXIMUM                  MAXIMUM RESIDUAL        MAXIMUM
 ITERATION  ITERATION ITERATION                    MODEL-(CELLID)         CHANGE                    MODEL-(CELLID)       RESIDUAL
 --------------------------------------------------------------------------------------------------------------------------------
          1         1         1                     1_GWF-(3,2,3) -0.7762891E-01                    1_GWF-(6,3,33)  -127.8727    
          2         1         2                     1_GWF-(3,2,3) -0.1178860E-02                  1_GWF-(11,11,33)   49.94087    
          3         1         3                     1_GWF-(3,2,3) -0.2000735E-02                   1_GWF-(11,9,33)   28.96385    
          4         1         4                     1_GWF-(3,2,3)  0.3016781E-03                   1_GWF-(11,7,33)   18.92844    
          5         1         5                     1_GWF-(3,2,3)  0.3748228E-04                   1_GWF-(11,5,33)   13.42449    
          6         1         6                     1_GWF-(3,2,3)  0.3213452E-04                   1_GWF-(11,7,33)   15.43271    


 INNER ITERATION SUMMARY
 --------------------------------------------------------------------------------------------------------------------------------
     TOTAL      OUTER     INNER                    MAXIMUM CHANGE        MAXIMUM                  MAXIMUM RESIDUAL        MAXIMUM
 ITERATION  ITERATION ITERATION                    MODEL-(CELLID)         CHANGE                    MODEL-(CELLID)       RESIDUAL
 --------------------------------------------------------------------------------------------------------------------------------
          1         1         1                     1_GWF-(3,2,3) -0.1025496                        1_GWF-(6,2,33)  -182.9963    
          2         1         2                     1_GWF-(3,2,3) -0.9870233E-02                   1_GWF-(6,11,26)   77.48123    
          3         1         3                     1_GWF-(3,2,3) -0.5451947E-02                   1_GWF-(11,9,33)   43.79944    
          4         1         4                     1_GWF-(3,2,3)  0.9020334E-03                   1_GWF-(11,7,33)   27.53414    
          5         1         5                     1_GWF-(3,2,3)  0.5113155E-03                   1_GWF-(11,5,33)   20.86662    
          6         1         6                     1_GWF-(3,2,3) -0.1249268E-04                   1_GWF-(11,6,33)   23.51956    
          7         2         1                     1_GWF-(3,2,3)  0.4426517E-03                   1_GWF-(11,2,33)   12.35901    
          8         2         2                     1_GWF-(3,2,3) -0.8605140E-04                  1_GWF-(11,10,33)  -5.779630    
          9         2         3                     1_GWF-(3,2,3) -0.2142169E-03                   1_GWF-(11,2,33)   3.943267    


 INNER ITERATION SUMMARY
 --------------------------------------------------------------------------------------------------------------------------------
     TOTAL      OUTER     INNER                    MAXIMUM CHANGE        MAXIMUM                  MAXIMUM RESIDUAL        MAXIMUM
 ITERATION  ITERATION ITERATION                    MODEL-(CELLID)         CHANGE                    MODEL-(CELLID)       RESIDUAL
 --------------------------------------------------------------------------------------------------------------------------------
          1         1         1                     1_GWF-(3,2,3) -0.1300571                        1_GWF-(6,2,33)  -249.0190    
          2         1         2                     1_GWF-(3,2,3) -0.2975124E-01                    1_GWF-(6,7,28)   126.8134    
          3         1         3                     1_GWF-(3,2,3) -0.1408039E-01                   1_GWF-(11,9,33)   53.57187    
          4         1         4                     1_GWF-(3,2,3)  0.1807165E-02                   1_GWF-(11,9,33)   32.11624    
          5         1         5                     1_GWF-(3,2,3)  0.1491907E-02                   1_GWF-(11,7,33)   25.19047    
          6         1         6                     1_GWF-(3,2,3)  0.2965846E-04                   1_GWF-(11,6,33)   23.04563    
          7         2         1                     1_GWF-(3,2,3)  0.1730918E-02                   1_GWF-(11,4,33)   11.86163    
          8         2         2                     1_GWF-(3,2,3) -0.3241852E-03                   1_GWF-(11,2,33)   7.699405    
          9         2         3                     1_GWF-(3,2,3) -0.5286951E-03                   1_GWF-(11,2,33)   5.823588    
         10         2         4                     1_GWF-(3,2,3) -0.1821737E-03                   1_GWF-(11,2,33)   3.160424    
         11         3         1                     1_GWF-(3,2,3)  0.2851239E-03                   1_GWF-(11,2,33)   2.017306    

 UBDSV1 SAVING           STO-SS ON UNIT   1109 AT TIME STEP      5, STRESS PERIOD     19
 UBDSV1 SAVING           STO-SY ON UNIT   1109 AT TIME STEP      5, STRESS PERIOD     19
 UBDSV1 SAVING     FLOW-JA-FACE ON UNIT   1109 AT TIME STEP      5, STRESS PERIOD     19
 UBDSV06 SAVING              WEL IN MODEL SHELLMOUND       PACKAGE SHELLMOUND      CONNECTED TO MODEL SHELLMOUND       PACKAGE WEL_0            ON UNIT   1109 AT TIME STEP      5, STRESS PERIOD     19
 UBDSV06 SAVING              RCH IN MODEL SHELLMOUND       PACKAGE SHELLMOUND      CONNECTED TO MODEL SHELLMOUND       PACKAGE RCHA             ON UNIT   1109 AT TIME STEP      5, STRESS PERIOD     19
 UBDSV06 SAVING              SFR IN MODEL SHELLMOUND       PACKAGE SHELLMOUND      CONNECTED TO MODEL SHELLMOUND       PACKAGE SFR              ON UNIT   1109 AT TIME STEP      5, STRESS PERIOD     19
 UBDSV06 SAVING     FLOW-JA-FACE IN MODEL SHELLMOUND       PACKAGE SFR             CONNECTED TO MODEL SHELLMOUND       PACKAGE SFR              ON UNIT   1041 AT TIME STEP      5, STRESS PERIOD     19
 UBDSV06 SAVING              GWF IN MODEL SHELLMOUND       PACKAGE SFR             CONNECTED TO MODEL SHELLMOUND       PACKAGE SHELLMOUND       ON UNIT   1041 AT TIME STEP      5, STRESS PERIOD     19
 UBDSV06 SAVING       EXT-INFLOW IN MODEL SHELLMOUND       PACKAGE SFR             CONNECTED TO MODEL SHELLMOUND       PACKAGE SFR              ON UNIT   1041 AT TIME STEP      5, STRESS PERIOD     19
 UBDSV06 SAVING         RAINFALL IN MODEL SHELLMOUND       PACKAGE SFR             CONNECTED TO MODEL SHELLMOUND       PACKAGE SFR              ON UNIT   1041 AT TIME STEP      5, STRESS PERIOD     19
 UBDSV06 SAVING           RUNOFF IN MODEL SHELLMOUND       PACKAGE SFR             CONNECTED TO MODEL SHELLMOUND       PACKAGE SFR              ON UNIT   1041 AT TIME STEP      5, STRESS PERIOD     19
 UBDSV06 SAVING      EVAPORATION IN MODEL SHELLMOUND       PACKAGE SFR             CONNECTED TO MODEL SHELLMOUND       PACKAGE SFR              ON UNIT   1041 AT TIME STEP      5, STRESS PERIOD     19
 UBDSV06 SAVING      EXT-OUTFLOW IN MODEL SHELLMOUND       PACKAGE SFR             CONNECTED TO MODEL SHELLMOUND       PACKAGE SFR              ON UNIT   1041 AT TIME STEP      5, STRESS PERIOD     19

 HEAD WILL BE SAVED ON UNIT 1110 AT END OF TIME STEP    5, STRESS PERIOD   19


  SFR BUDGET FOR ENTIRE MODEL AT END OF TIME STEP    5, STRESS PERIOD  19
  ------------------------------------------------------------------------------

     CUMULATIVE SFR      L**3       RATES FOR THIS TIME STEP      L**3/T
     ------------------                 ------------------------

           IN:                                      IN:
           ---                                      ---
          EXT-INFLOW =           0.0000            EXT-INFLOW =           0.0000
            RAINFALL =           0.0000              RAINFALL =           0.0000
              RUNOFF =           0.0000                RUNOFF =           0.0000
                 GWF =     2090695.9831                   GWF =           0.0000
         EVAPORATION =           0.0000           EVAPORATION =           0.0000
         EXT-OUTFLOW =           0.0000           EXT-OUTFLOW =           0.0000

            TOTAL IN =     2090695.9831              TOTAL IN =           0.0000

          OUT:                                     OUT:
          ----                                     ----
          EXT-INFLOW =           0.0000            EXT-INFLOW =           0.0000
            RAINFALL =           0.0000              RAINFALL =           0.0000
              RUNOFF =           0.0000                RUNOFF =           0.0000
                 GWF =      559656.8964                   GWF =           0.0000
         EVAPORATION =           0.0000           EVAPORATION =           0.0000
         EXT-OUTFLOW =     1531039.0867           EXT-OUTFLOW =           0.0000

           TOTAL OUT =     2090695.9831             TOTAL OUT =           0.0000

            IN - OUT =      -2.3283E-10              IN - OUT =           0.0000

 PERCENT DISCREPANCY =          -0.00     PERCENT DISCREPANCY =           0.00



  VOLUME BUDGET FOR ENTIRE MODEL AT END OF TIME STEP    5, STRESS PERIOD  19
  ---------------------------------------------------------------------------------------------------

     CUMULATIVE VOLUME      L**3       RATES FOR THIS TIME STEP      L**3/T          PACKAGE NAME    
     ------------------                 ------------------------                     ----------------

           IN:                                      IN:
           ---                                      ---
              STO-SS =    12636828.4153                STO-SS =        1082.1237     STORAGE         
              STO-SY =  4738754146.3856                STO-SY =      436691.9452     STORAGE         
                 WEL =           0.0000                   WEL =           0.0000     WEL_0           
                 RCH =   390405464.8528                   RCH =       43632.3055     RCHA            
                 SFR =      592314.0215                   SFR =           0.0000     SFR             

            TOTAL IN =  5142388753.6752              TOTAL IN =      481406.3744

          OUT:                                     OUT:
          ----                                     ----
              STO-SS =       23609.2270                STO-SS =       7.9226E-02     STORAGE         
              STO-SY =     8490973.1479                STO-SY =           0.0000     STORAGE         
                 WEL =  5135276042.7274                   WEL =      481453.0527     WEL_0           
                 RCH =           0.0000                   RCH =           0.0000     RCHA            
                 SFR =     1979787.0808                   SFR =           0.0000     SFR             

           TOTAL OUT =  5145770412.1831             TOTAL OUT =      481453.1319

            IN - OUT =    -3381658.5079              IN - OUT =         -46.7575

 PERCENT DISCREPANCY =          -0.07     PERCENT DISCREPANCY =          -0.01




         TIME SUMMARY AT END OF TIME STEP    5 IN STRESS PERIOD   19
                    SECONDS     MINUTES      HOURS       DAYS        YEARS
                    -----------------------------------------------------------
   TIME STEP LENGTH 6.06970E+06 1.01162E+05  1686.0      70.251     0.19234    
 STRESS PERIOD TIME 1.58112E+07 2.63520E+05  4392.0      183.00     0.50103    
         TOTAL TIME 5.52355E+08 9.20592E+06 1.53432E+05  6393.0      17.503    
