                                   MODFLOW 6
                U.S. GEOLOGICAL SURVEY MODULAR HYDROLOGIC MODEL
                          GROUNDWATER FLOW MODEL (GWF)
                            VERSION 6.1.0 12/12/2019

   MODFLOW 6 compiled Dec 13 2019 12:29:49 with IFORT compiler (ver. 19.0.5)

This software has been approved for release by the U.S. Geological 
Survey (USGS). Although the software has been subjected to rigorous 
review, the USGS reserves the right to update the software as needed 
pursuant to further analysis and review. No warranty, expressed or 
implied, is made by the USGS or the U.S. Government as to the 
functionality of the software and related material nor shall the 
fact of release constitute any such warranty. Furthermore, the 
software is released on condition that neither the USGS nor the U.S. 
Government shall be held liable for any damages resulting from its 
authorized or unauthorized use. Also refer to the USGS Water 
Resources Software User Rights Notice for complete use, copyright, 
and distribution information.


MODFLOW was compiled using uniform precision.
Precision of REAL variables: 15


 OPENED shellmound.dis
 FILE TYPE:DIS6                   UNIT 1005   STATUS:OLD                 
 FORMAT:FORMATTED              ACCESS:SEQUENTIAL          
 ACTION:READ                


 OPENED shellmound.ic
 FILE TYPE:IC6                    UNIT 1006   STATUS:OLD                 
 FORMAT:FORMATTED              ACCESS:SEQUENTIAL          
 ACTION:READ                


 OPENED shellmound.npf
 FILE TYPE:NPF6                   UNIT 1007   STATUS:OLD                 
 FORMAT:FORMATTED              ACCESS:SEQUENTIAL          
 ACTION:READ                


 OPENED shellmound.sto
 FILE TYPE:STO6                   UNIT 1008   STATUS:OLD                 
 FORMAT:FORMATTED              ACCESS:SEQUENTIAL          
 ACTION:READ                


 OPENED shellmound.rcha
 FILE TYPE:RCH6                   UNIT 1009   STATUS:OLD                 
 FORMAT:FORMATTED              ACCESS:SEQUENTIAL          
 ACTION:READ                


 OPENED shellmound.oc
 FILE TYPE:OC6                    UNIT 1010   STATUS:OLD                 
 FORMAT:FORMATTED              ACCESS:SEQUENTIAL          
 ACTION:READ                


 OPENED shellmound.sfr
 FILE TYPE:SFR6                   UNIT 1011   STATUS:OLD                 
 FORMAT:FORMATTED              ACCESS:SEQUENTIAL          
 ACTION:READ                


 OPENED shellmound.wel
 FILE TYPE:WEL6                   UNIT 1012   STATUS:OLD                 
 FORMAT:FORMATTED              ACCESS:SEQUENTIAL          
 ACTION:READ                


 OPENED shellmound.obs
 FILE TYPE:OBS6                   UNIT 1013   STATUS:OLD                 
 FORMAT:FORMATTED              ACCESS:SEQUENTIAL          
 ACTION:READ                

 NAMEFILE OPTIONS:
    STRESS PACKAGE INPUT WILL BE PRINTED FOR ALL MODEL STRESS PACKAGES
    FLOWS WILL BE SAVED TO BUDGET FILE SPECIFIED IN OUTPUT CONTROL
    NEWTON-RAPHSON method enabled for the model.

 DIS -- STRUCTURED GRID DISCRETIZATION PACKAGE, VERSION 2 : 3/27/2014 - INPUT READ FROM UNIT 1005


 PROCESSING DISCRETIZATION OPTIONS
    MODEL LENGTH UNIT IS METERS
    XORIGIN SPECIFIED AS     500955.000000000    
    YORIGIN SPECIFIED AS     1176285.00000000    
    ANGROT SPECIFIED AS     0.00000000000000    
 END OF DISCRETIZATION OPTIONS
 PROCESSING DISCRETIZATION DIMENSIONS
    NLAY =      13
    NROW =      30
    NCOL =      35
 END OF DISCRETIZATION DIMENSIONS
 PROCESSING GRIDDATA

                     DELR =   1000.000    

                     DELC =   1000.000    

 OPENED ./external/top.dat
 FILE TYPE:OPEN/CLOSE   UNIT 1015   STATUS:OLD                 
 FORMAT:FORMATTED              ACCESS:SEQUENTIAL          
 ACTION:READ                


 OPENED ./external/botm0.dat
 FILE TYPE:OPEN/CLOSE   UNIT 1016   STATUS:OLD                 
 FORMAT:FORMATTED              ACCESS:SEQUENTIAL          
 ACTION:READ                


 OPENED ./external/botm1.dat
 FILE TYPE:OPEN/CLOSE   UNIT 1017   STATUS:OLD                 
 FORMAT:FORMATTED              ACCESS:SEQUENTIAL          
 ACTION:READ                


 OPENED ./external/botm2.dat
 FILE TYPE:OPEN/CLOSE   UNIT 1018   STATUS:OLD                 
 FORMAT:FORMATTED              ACCESS:SEQUENTIAL          
 ACTION:READ                


 OPENED ./external/botm3.dat
 FILE TYPE:OPEN/CLOSE   UNIT 1019   STATUS:OLD                 
 FORMAT:FORMATTED              ACCESS:SEQUENTIAL          
 ACTION:READ                


 OPENED ./external/botm4.dat
 FILE TYPE:OPEN/CLOSE   UNIT 1020   STATUS:OLD                 
 FORMAT:FORMATTED              ACCESS:SEQUENTIAL          
 ACTION:READ                


 OPENED ./external/botm5.dat
 FILE TYPE:OPEN/CLOSE   UNIT 1021   STATUS:OLD                 
 FORMAT:FORMATTED              ACCESS:SEQUENTIAL          
 ACTION:READ                


 OPENED ./external/botm6.dat
 FILE TYPE:OPEN/CLOSE   UNIT 1022   STATUS:OLD                 
 FORMAT:FORMATTED              ACCESS:SEQUENTIAL          
 ACTION:READ                


 OPENED ./external/botm7.dat
 FILE TYPE:OPEN/CLOSE   UNIT 1023   STATUS:OLD                 
 FORMAT:FORMATTED              ACCESS:SEQUENTIAL          
 ACTION:READ                


 OPENED ./external/botm8.dat
 FILE TYPE:OPEN/CLOSE   UNIT 1024   STATUS:OLD                 
 FORMAT:FORMATTED              ACCESS:SEQUENTIAL          
 ACTION:READ                


 OPENED ./external/botm9.dat
 FILE TYPE:OPEN/CLOSE   UNIT 1025   STATUS:OLD                 
 FORMAT:FORMATTED              ACCESS:SEQUENTIAL          
 ACTION:READ                


 OPENED ./external/botm10.dat
 FILE TYPE:OPEN/CLOSE   UNIT 1026   STATUS:OLD                 
 FORMAT:FORMATTED              ACCESS:SEQUENTIAL          
 ACTION:READ                


 OPENED ./external/botm11.dat
 FILE TYPE:OPEN/CLOSE   UNIT 1027   STATUS:OLD                 
 FORMAT:FORMATTED              ACCESS:SEQUENTIAL          
 ACTION:READ                


 OPENED ./external/botm12.dat
 FILE TYPE:OPEN/CLOSE   UNIT 1028   STATUS:OLD                 
 FORMAT:FORMATTED              ACCESS:SEQUENTIAL          
 ACTION:READ                


 OPENED ./external/idomain0.dat
 FILE TYPE:OPEN/CLOSE   UNIT 1029   STATUS:OLD                 
 FORMAT:FORMATTED              ACCESS:SEQUENTIAL          
 ACTION:READ                


 OPENED ./external/idomain1.dat
 FILE TYPE:OPEN/CLOSE   UNIT 1030   STATUS:OLD                 
 FORMAT:FORMATTED              ACCESS:SEQUENTIAL          
 ACTION:READ                


 OPENED ./external/idomain2.dat
 FILE TYPE:OPEN/CLOSE   UNIT 1031   STATUS:OLD                 
 FORMAT:FORMATTED              ACCESS:SEQUENTIAL          
 ACTION:READ                


 OPENED ./external/idomain3.dat
 FILE TYPE:OPEN/CLOSE   UNIT 1032   STATUS:OLD                 
 FORMAT:FORMATTED              ACCESS:SEQUENTIAL          
 ACTION:READ                


 OPENED ./external/idomain4.dat
 FILE TYPE:OPEN/CLOSE   UNIT 1033   STATUS:OLD                 
 FORMAT:FORMATTED              ACCESS:SEQUENTIAL          
 ACTION:READ                


 OPENED ./external/idomain5.dat
 FILE TYPE:OPEN/CLOSE   UNIT 1034   STATUS:OLD                 
 FORMAT:FORMATTED              ACCESS:SEQUENTIAL          
 ACTION:READ                


 OPENED ./external/idomain6.dat
 FILE TYPE:OPEN/CLOSE   UNIT 1035   STATUS:OLD                 
 FORMAT:FORMATTED              ACCESS:SEQUENTIAL          
 ACTION:READ                


 OPENED ./external/idomain7.dat
 FILE TYPE:OPEN/CLOSE   UNIT 1036   STATUS:OLD                 
 FORMAT:FORMATTED              ACCESS:SEQUENTIAL          
 ACTION:READ                


 OPENED ./external/idomain8.dat
 FILE TYPE:OPEN/CLOSE   UNIT 1037   STATUS:OLD                 
 FORMAT:FORMATTED              ACCESS:SEQUENTIAL          
 ACTION:READ                


 OPENED ./external/idomain9.dat
 FILE TYPE:OPEN/CLOSE   UNIT 1038   STATUS:OLD                 
 FORMAT:FORMATTED              ACCESS:SEQUENTIAL          
 ACTION:READ                


 OPENED ./external/idomain10.dat
 FILE TYPE:OPEN/CLOSE   UNIT 1039   STATUS:OLD                 
 FORMAT:FORMATTED              ACCESS:SEQUENTIAL          
 ACTION:READ                


 OPENED ./external/idomain11.dat
 FILE TYPE:OPEN/CLOSE   UNIT 1040   STATUS:OLD                 
 FORMAT:FORMATTED              ACCESS:SEQUENTIAL          
 ACTION:READ                


 OPENED ./external/idomain12.dat
 FILE TYPE:OPEN/CLOSE   UNIT 1041   STATUS:OLD                 
 FORMAT:FORMATTED              ACCESS:SEQUENTIAL          
 ACTION:READ                

 END PROCESSING GRIDDATA

 THE SPECIFIED IDOMAIN RESULTS IN A REDUCED NUMBER OF CELLS.
 NUMBER OF USER NODES: 13650
 NUMBER OF NODES IN SOLUTION: 9192



 NPF -- NODE PROPERTY FLOW PACKAGE, VERSION 1, 3/30/2015 INPUT READ FROM UNIT 1007


 PROCESSING NPF OPTIONS
    CELL-BY-CELL FLOW INFORMATION WILL BE SAVED TO BINARY FILE WHENEVER ICBCFL IS NOT ZERO.
 END OF NPF OPTIONS

 WEL   -- WEL PACKAGE, VERSION 8, 2/22/2014 INPUT READ FROM UNIT 1012

 PROCESSING WEL OPTIONS
    LISTS OF WEL CELLS WILL BE PRINTED.
    WEL FLOWS WILL BE PRINTED TO LISTING FILE.
    FLOWS WILL BE SAVED TO BUDGET FILE SPECIFIED IN OUTPUT CONTROL
 END OF WEL OPTIONS

 PROCESSING WEL DIMENSIONS
    MAXBOUND =     340
 END OF WEL DIMENSIONS

 RCH   -- RCH PACKAGE, VERSION 8, 2/22/2014 INPUT READ FROM UNIT 1009

 PROCESSING RCH OPTIONS
    RECHARGE INPUT WILL BE READ AS ARRAY(S).
    LISTS OF RCH CELLS WILL BE PRINTED.
    FLOWS WILL BE SAVED TO BUDGET FILE SPECIFIED IN OUTPUT CONTROL
 END OF RCH OPTIONS

 SFR   -- SFR PACKAGE, VERSION 8, 2/22/2014 INPUT READ FROM UNIT 1011
 # MODFLOW-6 SFR input; created by SFRmaker v. 0.3.0.post4+ga59127c

 PROCESSING SFR OPTIONS
    FLOWS WILL BE SAVED TO BUDGET FILE SPECIFIED IN OUTPUT CONTROL

 OPENED ./shellmound.sfr.cbc
 FILE TYPE:DATA(BINARY)   UNIT 1042   STATUS:REPLACE             
 FORMAT:UNFORMATTED            ACCESS:STREAM              
 ACTION:READWRITE           

    SFR  BUDGET  WILL BE SAVED TO FILE: ./shellmound.sfr.cbc                                                                                                                                                                                                                                                                                                                                                                                                                                                                                                                                                                                                                                                                                                                                                                                                                                                                                                                                                                                                                    
    OPENED ON UNIT:    1042

 OPENED ./shellmound.sfr.stage.bin
 FILE TYPE:DATA(BINARY)   UNIT 1043   STATUS:REPLACE             
 FORMAT:UNFORMATTED            ACCESS:STREAM              
 ACTION:READWRITE           

    SFR  STAGE  WILL BE SAVED TO FILE: ./shellmound.sfr.stage.bin                                                                                                                                                                                                                                                                                                                                                                                                                                                                                                                                                                                                                                                                                                                                                                                                                                                                                                                                                                                                              
    OPENED ON UNIT:    1043
    UNIT CONVERSION VALUE (   86400.00    ) SPECIFIED.
 END OF SFR OPTIONS

 PROCESSING SFR DIMENSIONS
    NREACHES = 362
 END OF SFR DIMENSIONS

 IC -- INITIAL CONDITIONS PACKAGE, VERSION 8, 3/28/2015 INPUT READ FROM UNIT 1006
 PROCESSING GRIDDATA

 OPENED ./external/strt0.dat
 FILE TYPE:OPEN/CLOSE   UNIT 1044   STATUS:OLD                 
 FORMAT:FORMATTED              ACCESS:SEQUENTIAL          
 ACTION:READ                


 OPENED ./external/strt1.dat
 FILE TYPE:OPEN/CLOSE   UNIT 1045   STATUS:OLD                 
 FORMAT:FORMATTED              ACCESS:SEQUENTIAL          
 ACTION:READ                


 OPENED ./external/strt2.dat
 FILE TYPE:OPEN/CLOSE   UNIT 1046   STATUS:OLD                 
 FORMAT:FORMATTED              ACCESS:SEQUENTIAL          
 ACTION:READ                


 OPENED ./external/strt3.dat
 FILE TYPE:OPEN/CLOSE   UNIT 1047   STATUS:OLD                 
 FORMAT:FORMATTED              ACCESS:SEQUENTIAL          
 ACTION:READ                


 OPENED ./external/strt4.dat
 FILE TYPE:OPEN/CLOSE   UNIT 1048   STATUS:OLD                 
 FORMAT:FORMATTED              ACCESS:SEQUENTIAL          
 ACTION:READ                


 OPENED ./external/strt5.dat
 FILE TYPE:OPEN/CLOSE   UNIT 1049   STATUS:OLD                 
 FORMAT:FORMATTED              ACCESS:SEQUENTIAL          
 ACTION:READ                


 OPENED ./external/strt6.dat
 FILE TYPE:OPEN/CLOSE   UNIT 1050   STATUS:OLD                 
 FORMAT:FORMATTED              ACCESS:SEQUENTIAL          
 ACTION:READ                


 OPENED ./external/strt7.dat
 FILE TYPE:OPEN/CLOSE   UNIT 1051   STATUS:OLD                 
 FORMAT:FORMATTED              ACCESS:SEQUENTIAL          
 ACTION:READ                


 OPENED ./external/strt8.dat
 FILE TYPE:OPEN/CLOSE   UNIT 1052   STATUS:OLD                 
 FORMAT:FORMATTED              ACCESS:SEQUENTIAL          
 ACTION:READ                


 OPENED ./external/strt9.dat
 FILE TYPE:OPEN/CLOSE   UNIT 1053   STATUS:OLD                 
 FORMAT:FORMATTED              ACCESS:SEQUENTIAL          
 ACTION:READ                


 OPENED ./external/strt10.dat
 FILE TYPE:OPEN/CLOSE   UNIT 1054   STATUS:OLD                 
 FORMAT:FORMATTED              ACCESS:SEQUENTIAL          
 ACTION:READ                


 OPENED ./external/strt11.dat
 FILE TYPE:OPEN/CLOSE   UNIT 1055   STATUS:OLD                 
 FORMAT:FORMATTED              ACCESS:SEQUENTIAL          
 ACTION:READ                


 OPENED ./external/strt12.dat
 FILE TYPE:OPEN/CLOSE   UNIT 1056   STATUS:OLD                 
 FORMAT:FORMATTED              ACCESS:SEQUENTIAL          
 ACTION:READ                

 END PROCESSING GRIDDATA
 PROCESSING GRIDDATA

                ICELLTYPE = 1

 OPENED ./external/k0.dat
 FILE TYPE:OPEN/CLOSE   UNIT 1057   STATUS:OLD                 
 FORMAT:FORMATTED              ACCESS:SEQUENTIAL          
 ACTION:READ                


 OPENED ./external/k1.dat
 FILE TYPE:OPEN/CLOSE   UNIT 1058   STATUS:OLD                 
 FORMAT:FORMATTED              ACCESS:SEQUENTIAL          
 ACTION:READ                


 OPENED ./external/k2.dat
 FILE TYPE:OPEN/CLOSE   UNIT 1059   STATUS:OLD                 
 FORMAT:FORMATTED              ACCESS:SEQUENTIAL          
 ACTION:READ                


 OPENED ./external/k3.dat
 FILE TYPE:OPEN/CLOSE   UNIT 1060   STATUS:OLD                 
 FORMAT:FORMATTED              ACCESS:SEQUENTIAL          
 ACTION:READ                


 OPENED ./external/k4.dat
 FILE TYPE:OPEN/CLOSE   UNIT 1061   STATUS:OLD                 
 FORMAT:FORMATTED              ACCESS:SEQUENTIAL          
 ACTION:READ                


 OPENED ./external/k5.dat
 FILE TYPE:OPEN/CLOSE   UNIT 1062   STATUS:OLD                 
 FORMAT:FORMATTED              ACCESS:SEQUENTIAL          
 ACTION:READ                


 OPENED ./external/k6.dat
 FILE TYPE:OPEN/CLOSE   UNIT 1063   STATUS:OLD                 
 FORMAT:FORMATTED              ACCESS:SEQUENTIAL          
 ACTION:READ                


 OPENED ./external/k7.dat
 FILE TYPE:OPEN/CLOSE   UNIT 1064   STATUS:OLD                 
 FORMAT:FORMATTED              ACCESS:SEQUENTIAL          
 ACTION:READ                


 OPENED ./external/k8.dat
 FILE TYPE:OPEN/CLOSE   UNIT 1065   STATUS:OLD                 
 FORMAT:FORMATTED              ACCESS:SEQUENTIAL          
 ACTION:READ                


 OPENED ./external/k9.dat
 FILE TYPE:OPEN/CLOSE   UNIT 1066   STATUS:OLD                 
 FORMAT:FORMATTED              ACCESS:SEQUENTIAL          
 ACTION:READ                


 OPENED ./external/k10.dat
 FILE TYPE:OPEN/CLOSE   UNIT 1067   STATUS:OLD                 
 FORMAT:FORMATTED              ACCESS:SEQUENTIAL          
 ACTION:READ                


 OPENED ./external/k11.dat
 FILE TYPE:OPEN/CLOSE   UNIT 1068   STATUS:OLD                 
 FORMAT:FORMATTED              ACCESS:SEQUENTIAL          
 ACTION:READ                


 OPENED ./external/k12.dat
 FILE TYPE:OPEN/CLOSE   UNIT 1069   STATUS:OLD                 
 FORMAT:FORMATTED              ACCESS:SEQUENTIAL          
 ACTION:READ                


 OPENED ./external/k330.dat
 FILE TYPE:OPEN/CLOSE   UNIT 1070   STATUS:OLD                 
 FORMAT:FORMATTED              ACCESS:SEQUENTIAL          
 ACTION:READ                


 OPENED ./external/k331.dat
 FILE TYPE:OPEN/CLOSE   UNIT 1071   STATUS:OLD                 
 FORMAT:FORMATTED              ACCESS:SEQUENTIAL          
 ACTION:READ                


 OPENED ./external/k332.dat
 FILE TYPE:OPEN/CLOSE   UNIT 1072   STATUS:OLD                 
 FORMAT:FORMATTED              ACCESS:SEQUENTIAL          
 ACTION:READ                


 OPENED ./external/k333.dat
 FILE TYPE:OPEN/CLOSE   UNIT 1073   STATUS:OLD                 
 FORMAT:FORMATTED              ACCESS:SEQUENTIAL          
 ACTION:READ                


 OPENED ./external/k334.dat
 FILE TYPE:OPEN/CLOSE   UNIT 1074   STATUS:OLD                 
 FORMAT:FORMATTED              ACCESS:SEQUENTIAL          
 ACTION:READ                


 OPENED ./external/k335.dat
 FILE TYPE:OPEN/CLOSE   UNIT 1075   STATUS:OLD                 
 FORMAT:FORMATTED              ACCESS:SEQUENTIAL          
 ACTION:READ                


 OPENED ./external/k336.dat
 FILE TYPE:OPEN/CLOSE   UNIT 1076   STATUS:OLD                 
 FORMAT:FORMATTED              ACCESS:SEQUENTIAL          
 ACTION:READ                


 OPENED ./external/k337.dat
 FILE TYPE:OPEN/CLOSE   UNIT 1077   STATUS:OLD                 
 FORMAT:FORMATTED              ACCESS:SEQUENTIAL          
 ACTION:READ                


 OPENED ./external/k338.dat
 FILE TYPE:OPEN/CLOSE   UNIT 1078   STATUS:OLD                 
 FORMAT:FORMATTED              ACCESS:SEQUENTIAL          
 ACTION:READ                


 OPENED ./external/k339.dat
 FILE TYPE:OPEN/CLOSE   UNIT 1079   STATUS:OLD                 
 FORMAT:FORMATTED              ACCESS:SEQUENTIAL          
 ACTION:READ                


 OPENED ./external/k3310.dat
 FILE TYPE:OPEN/CLOSE   UNIT 1080   STATUS:OLD                 
 FORMAT:FORMATTED              ACCESS:SEQUENTIAL          
 ACTION:READ                


 OPENED ./external/k3311.dat
 FILE TYPE:OPEN/CLOSE   UNIT 1081   STATUS:OLD                 
 FORMAT:FORMATTED              ACCESS:SEQUENTIAL          
 ACTION:READ                


 OPENED ./external/k3312.dat
 FILE TYPE:OPEN/CLOSE   UNIT 1082   STATUS:OLD                 
 FORMAT:FORMATTED              ACCESS:SEQUENTIAL          
 ACTION:READ                

 K22 not provided.  Assuming K22 = K.
 END PROCESSING GRIDDATA

 STO -- STORAGE PACKAGE, VERSION 1, 5/19/2014 INPUT READ FROM UNIT 1008


 PROCESSING STORAGE OPTIONS
    CELL-BY-CELL FLOW INFORMATION WILL BE SAVED TO BINARY FILE WHENEVER ICBCFL IS NOT ZERO.
 END OF STORAGE OPTIONS
 PROCESSING GRIDDATA

                 ICONVERT = 1

 OPENED ./external/ss0.dat
 FILE TYPE:OPEN/CLOSE   UNIT 1083   STATUS:OLD                 
 FORMAT:FORMATTED              ACCESS:SEQUENTIAL          
 ACTION:READ                


 OPENED ./external/ss1.dat
 FILE TYPE:OPEN/CLOSE   UNIT 1084   STATUS:OLD                 
 FORMAT:FORMATTED              ACCESS:SEQUENTIAL          
 ACTION:READ                


 OPENED ./external/ss2.dat
 FILE TYPE:OPEN/CLOSE   UNIT 1085   STATUS:OLD                 
 FORMAT:FORMATTED              ACCESS:SEQUENTIAL          
 ACTION:READ                


 OPENED ./external/ss3.dat
 FILE TYPE:OPEN/CLOSE   UNIT 1086   STATUS:OLD                 
 FORMAT:FORMATTED              ACCESS:SEQUENTIAL          
 ACTION:READ                


 OPENED ./external/ss4.dat
 FILE TYPE:OPEN/CLOSE   UNIT 1087   STATUS:OLD                 
 FORMAT:FORMATTED              ACCESS:SEQUENTIAL          
 ACTION:READ                


 OPENED ./external/ss5.dat
 FILE TYPE:OPEN/CLOSE   UNIT 1088   STATUS:OLD                 
 FORMAT:FORMATTED              ACCESS:SEQUENTIAL          
 ACTION:READ                


 OPENED ./external/ss6.dat
 FILE TYPE:OPEN/CLOSE   UNIT 1089   STATUS:OLD                 
 FORMAT:FORMATTED              ACCESS:SEQUENTIAL          
 ACTION:READ                


 OPENED ./external/ss7.dat
 FILE TYPE:OPEN/CLOSE   UNIT 1090   STATUS:OLD                 
 FORMAT:FORMATTED              ACCESS:SEQUENTIAL          
 ACTION:READ                


 OPENED ./external/ss8.dat
 FILE TYPE:OPEN/CLOSE   UNIT 1091   STATUS:OLD                 
 FORMAT:FORMATTED              ACCESS:SEQUENTIAL          
 ACTION:READ                


 OPENED ./external/ss9.dat
 FILE TYPE:OPEN/CLOSE   UNIT 1092   STATUS:OLD                 
 FORMAT:FORMATTED              ACCESS:SEQUENTIAL          
 ACTION:READ                


 OPENED ./external/ss10.dat
 FILE TYPE:OPEN/CLOSE   UNIT 1093   STATUS:OLD                 
 FORMAT:FORMATTED              ACCESS:SEQUENTIAL          
 ACTION:READ                


 OPENED ./external/ss11.dat
 FILE TYPE:OPEN/CLOSE   UNIT 1094   STATUS:OLD                 
 FORMAT:FORMATTED              ACCESS:SEQUENTIAL          
 ACTION:READ                


 OPENED ./external/ss12.dat
 FILE TYPE:OPEN/CLOSE   UNIT 1095   STATUS:OLD                 
 FORMAT:FORMATTED              ACCESS:SEQUENTIAL          
 ACTION:READ                


 OPENED ./external/sy0.dat
 FILE TYPE:OPEN/CLOSE   UNIT 1096   STATUS:OLD                 
 FORMAT:FORMATTED              ACCESS:SEQUENTIAL          
 ACTION:READ                


 OPENED ./external/sy1.dat
 FILE TYPE:OPEN/CLOSE   UNIT 1097   STATUS:OLD                 
 FORMAT:FORMATTED              ACCESS:SEQUENTIAL          
 ACTION:READ                


 OPENED ./external/sy2.dat
 FILE TYPE:OPEN/CLOSE   UNIT 1098   STATUS:OLD                 
 FORMAT:FORMATTED              ACCESS:SEQUENTIAL          
 ACTION:READ                


 OPENED ./external/sy3.dat
 FILE TYPE:OPEN/CLOSE   UNIT 1099   STATUS:OLD                 
 FORMAT:FORMATTED              ACCESS:SEQUENTIAL          
 ACTION:READ                


 OPENED ./external/sy4.dat
 FILE TYPE:OPEN/CLOSE   UNIT 1100   STATUS:OLD                 
 FORMAT:FORMATTED              ACCESS:SEQUENTIAL          
 ACTION:READ                


 OPENED ./external/sy5.dat
 FILE TYPE:OPEN/CLOSE   UNIT 1101   STATUS:OLD                 
 FORMAT:FORMATTED              ACCESS:SEQUENTIAL          
 ACTION:READ                


 OPENED ./external/sy6.dat
 FILE TYPE:OPEN/CLOSE   UNIT 1102   STATUS:OLD                 
 FORMAT:FORMATTED              ACCESS:SEQUENTIAL          
 ACTION:READ                


 OPENED ./external/sy7.dat
 FILE TYPE:OPEN/CLOSE   UNIT 1103   STATUS:OLD                 
 FORMAT:FORMATTED              ACCESS:SEQUENTIAL          
 ACTION:READ                


 OPENED ./external/sy8.dat
 FILE TYPE:OPEN/CLOSE   UNIT 1104   STATUS:OLD                 
 FORMAT:FORMATTED              ACCESS:SEQUENTIAL          
 ACTION:READ                


 OPENED ./external/sy9.dat
 FILE TYPE:OPEN/CLOSE   UNIT 1105   STATUS:OLD                 
 FORMAT:FORMATTED              ACCESS:SEQUENTIAL          
 ACTION:READ                


 OPENED ./external/sy10.dat
 FILE TYPE:OPEN/CLOSE   UNIT 1106   STATUS:OLD                 
 FORMAT:FORMATTED              ACCESS:SEQUENTIAL          
 ACTION:READ                


 OPENED ./external/sy11.dat
 FILE TYPE:OPEN/CLOSE   UNIT 1107   STATUS:OLD                 
 FORMAT:FORMATTED              ACCESS:SEQUENTIAL          
 ACTION:READ                


 OPENED ./external/sy12.dat
 FILE TYPE:OPEN/CLOSE   UNIT 1108   STATUS:OLD                 
 FORMAT:FORMATTED              ACCESS:SEQUENTIAL          
 ACTION:READ                

 END PROCESSING GRIDDATA

The observation utility is active for "SHELLMOUND"

Processing observation options:

Text output number of digits of precision set to: 10
The PRINT_INPUT option has been specified.


Observations read from file "shellmound.obs":
Name                                      Type                             Time         Location data
----------------------------------------  -------------------------------  -----------  --------------------------
3131090171601                             Continuous HEAD                  All times    "4 28 28"
3131090171601                             Continuous HEAD                  All times    "5 28 28"
3131090171601                             Continuous HEAD                  All times    "6 28 28"
3131090171601                             Continuous HEAD                  All times    "7 28 28"
3131090171601                             Continuous HEAD                  All times    "8 28 28"
3131090171601                             Continuous HEAD                  All times    "9 28 28"
3131090171601                             Continuous HEAD                  All times    "10 28 28"
3131090171601                             Continuous HEAD                  All times    "11 28 28"
3131090171601                             Continuous HEAD                  All times    "12 28 28"
3131090171601                             Continuous HEAD                  All times    "13 28 28"
3144090145401                             Continuous HEAD                  All times    "4 28 30"
3144090145401                             Continuous HEAD                  All times    "5 28 30"
3144090145401                             Continuous HEAD                  All times    "6 28 30"
3144090145401                             Continuous HEAD                  All times    "7 28 30"
3144090145401                             Continuous HEAD                  All times    "8 28 30"
3144090145401                             Continuous HEAD                  All times    "9 28 30"
3144090145401                             Continuous HEAD                  All times    "10 28 30"
3144090145401                             Continuous HEAD                  All times    "11 28 30"
3144090145401                             Continuous HEAD                  All times    "12 28 30"
3144090145401                             Continuous HEAD                  All times    "13 28 30"
3148090142501                             Continuous HEAD                  All times    "4 28 31"
3148090142501                             Continuous HEAD                  All times    "5 28 31"
3148090142501                             Continuous HEAD                  All times    "6 28 31"
3148090142501                             Continuous HEAD                  All times    "7 28 31"
3148090142501                             Continuous HEAD                  All times    "8 28 31"
3148090142501                             Continuous HEAD                  All times    "9 28 31"
3148090142501                             Continuous HEAD                  All times    "10 28 31"
3148090142501                             Continuous HEAD                  All times    "11 28 31"
3148090142501                             Continuous HEAD                  All times    "12 28 31"
3148090142501                             Continuous HEAD                  All times    "13 28 31"
3154090175201                             Continuous HEAD                  All times    "4 28 25"
3154090175201                             Continuous HEAD                  All times    "5 28 25"
3154090175201                             Continuous HEAD                  All times    "6 28 25"
3154090175201                             Continuous HEAD                  All times    "7 28 25"
3154090175201                             Continuous HEAD                  All times    "8 28 25"
3154090175201                             Continuous HEAD                  All times    "9 28 25"
3154090175201                             Continuous HEAD                  All times    "10 28 25"
3154090175201                             Continuous HEAD                  All times    "11 28 25"
3154090175201                             Continuous HEAD                  All times    "12 28 25"
3154090175201                             Continuous HEAD                  All times    "13 28 25"
3154090183901                             Continuous HEAD                  All times    "4 28 24"
3154090183901                             Continuous HEAD                  All times    "5 28 24"
3154090183901                             Continuous HEAD                  All times    "6 28 24"
3154090183901                             Continuous HEAD                  All times    "7 28 24"
3154090183901                             Continuous HEAD                  All times    "8 28 24"
3154090183901                             Continuous HEAD                  All times    "9 28 24"
3154090183901                             Continuous HEAD                  All times    "10 28 24"
3154090183901                             Continuous HEAD                  All times    "11 28 24"
3154090183901                             Continuous HEAD                  All times    "12 28 24"
3154090183901                             Continuous HEAD                  All times    "13 28 24"
3157090185501                             Continuous HEAD                  All times    "4 28 24"
3157090185501                             Continuous HEAD                  All times    "5 28 24"
3157090185501                             Continuous HEAD                  All times    "6 28 24"
3157090185501                             Continuous HEAD                  All times    "7 28 24"
3157090185501                             Continuous HEAD                  All times    "8 28 24"
3157090185501                             Continuous HEAD                  All times    "9 28 24"
3157090185501                             Continuous HEAD                  All times    "10 28 24"
3157090185501                             Continuous HEAD                  All times    "11 28 24"
3157090185501                             Continuous HEAD                  All times    "12 28 24"
3157090185501                             Continuous HEAD                  All times    "13 28 24"
3203090205301                             Continuous HEAD                  All times    "4 28 21"
3203090205301                             Continuous HEAD                  All times    "5 28 21"
3203090205301                             Continuous HEAD                  All times    "6 28 21"
3203090205301                             Continuous HEAD                  All times    "7 28 21"
3203090205301                             Continuous HEAD                  All times    "8 28 21"
3203090205301                             Continuous HEAD                  All times    "9 28 21"
3203090205301                             Continuous HEAD                  All times    "10 28 21"
3203090205301                             Continuous HEAD                  All times    "11 28 21"
3203090205301                             Continuous HEAD                  All times    "12 28 21"
3203090205301                             Continuous HEAD                  All times    "13 28 21"
3206090185401                             Continuous HEAD                  All times    "4 28 24"
3206090185401                             Continuous HEAD                  All times    "5 28 24"
3206090185401                             Continuous HEAD                  All times    "6 28 24"
3206090185401                             Continuous HEAD                  All times    "7 28 24"
3206090185401                             Continuous HEAD                  All times    "8 28 24"
3206090185401                             Continuous HEAD                  All times    "9 28 24"
3206090185401                             Continuous HEAD                  All times    "10 28 24"
3206090185401                             Continuous HEAD                  All times    "11 28 24"
3206090185401                             Continuous HEAD                  All times    "12 28 24"
3206090185401                             Continuous HEAD                  All times    "13 28 24"
3209090220401                             Continuous HEAD                  All times    "4 28 19"
3209090220401                             Continuous HEAD                  All times    "5 28 19"
3209090220401                             Continuous HEAD                  All times    "6 28 19"
3209090220401                             Continuous HEAD                  All times    "7 28 19"
3209090220401                             Continuous HEAD                  All times    "8 28 19"
3209090220401                             Continuous HEAD                  All times    "9 28 19"
3209090220401                             Continuous HEAD                  All times    "10 28 19"
3209090220401                             Continuous HEAD                  All times    "11 28 19"
3209090220401                             Continuous HEAD                  All times    "12 28 19"
3209090220401                             Continuous HEAD                  All times    "13 28 19"
3219090145601                             Continuous HEAD                  All times    "4 27 30"
3219090145601                             Continuous HEAD                  All times    "5 27 30"
3219090145601                             Continuous HEAD                  All times    "6 27 30"
3219090145601                             Continuous HEAD                  All times    "7 27 30"
3219090145601                             Continuous HEAD                  All times    "8 27 30"
3219090145601                             Continuous HEAD                  All times    "9 27 30"
3219090145601                             Continuous HEAD                  All times    "10 27 30"
3219090145601                             Continuous HEAD                  All times    "11 27 30"
3219090145601                             Continuous HEAD                  All times    "12 27 30"
3219090145601                             Continuous HEAD                  All times    "13 27 30"
3220090151201                             Continuous HEAD                  All times    "4 27 29"
3220090151201                             Continuous HEAD                  All times    "5 27 29"
3220090151201                             Continuous HEAD                  All times    "6 27 29"
3220090151201                             Continuous HEAD                  All times    "7 27 29"
3220090151201                             Continuous HEAD                  All times    "8 27 29"
3220090151201                             Continuous HEAD                  All times    "9 27 29"
3220090151201                             Continuous HEAD                  All times    "10 27 29"
3220090151201                             Continuous HEAD                  All times    "11 27 29"
3220090151201                             Continuous HEAD                  All times    "12 27 29"
3220090151201                             Continuous HEAD                  All times    "13 27 29"
3224090252801                             Continuous HEAD                  All times    "1 28 14"
3224090252801                             Continuous HEAD                  All times    "2 28 14"
3224090252801                             Continuous HEAD                  All times    "3 28 14"
3224090252801                             Continuous HEAD                  All times    "4 28 14"
3224090252801                             Continuous HEAD                  All times    "5 28 14"
3224090252801                             Continuous HEAD                  All times    "6 28 14"
3224090252801                             Continuous HEAD                  All times    "7 28 14"
3224090252801                             Continuous HEAD                  All times    "8 28 14"
3224090252801                             Continuous HEAD                  All times    "9 28 14"
3224090252801                             Continuous HEAD                  All times    "10 28 14"
3224090252801                             Continuous HEAD                  All times    "11 28 14"
3224090252801                             Continuous HEAD                  All times    "12 28 14"
3224090252801                             Continuous HEAD                  All times    "13 28 14"
3225090284501                             Continuous HEAD                  All times    "1 28 8"
3225090284501                             Continuous HEAD                  All times    "2 28 8"
3225090284501                             Continuous HEAD                  All times    "3 28 8"
3225090284501                             Continuous HEAD                  All times    "4 28 8"
3225090284501                             Continuous HEAD                  All times    "5 28 8"
3225090284501                             Continuous HEAD                  All times    "6 28 8"
3225090284501                             Continuous HEAD                  All times    "7 28 8"
3225090284501                             Continuous HEAD                  All times    "8 28 8"
3225090284501                             Continuous HEAD                  All times    "9 28 8"
3225090284501                             Continuous HEAD                  All times    "10 28 8"
3225090284501                             Continuous HEAD                  All times    "11 28 8"
3225090284501                             Continuous HEAD                  All times    "12 28 8"
3225090284501                             Continuous HEAD                  All times    "13 28 8"
3226090283701                             Continuous HEAD                  All times    "1 28 9"
3226090283701                             Continuous HEAD                  All times    "2 28 9"
3226090283701                             Continuous HEAD                  All times    "3 28 9"
3226090283701                             Continuous HEAD                  All times    "4 28 9"
3226090283701                             Continuous HEAD                  All times    "5 28 9"
3226090283701                             Continuous HEAD                  All times    "6 28 9"
3226090283701                             Continuous HEAD                  All times    "7 28 9"
3226090283701                             Continuous HEAD                  All times    "8 28 9"
3226090283701                             Continuous HEAD                  All times    "9 28 9"
3226090283701                             Continuous HEAD                  All times    "10 28 9"
3226090283701                             Continuous HEAD                  All times    "11 28 9"
3226090283701                             Continuous HEAD                  All times    "12 28 9"
3226090283701                             Continuous HEAD                  All times    "13 28 9"
3227090174201                             Continuous HEAD                  All times    "4 27 25"
3227090174201                             Continuous HEAD                  All times    "5 27 25"
3227090174201                             Continuous HEAD                  All times    "6 27 25"
3227090174201                             Continuous HEAD                  All times    "7 27 25"
3227090174201                             Continuous HEAD                  All times    "8 27 25"
3227090174201                             Continuous HEAD                  All times    "9 27 25"
3227090174201                             Continuous HEAD                  All times    "10 27 25"
3227090174201                             Continuous HEAD                  All times    "11 27 25"
3227090174201                             Continuous HEAD                  All times    "12 27 25"
3227090174201                             Continuous HEAD                  All times    "13 27 25"
3228090273001                             Continuous HEAD                  All times    "1 28 10"
3228090273001                             Continuous HEAD                  All times    "2 28 10"
3228090273001                             Continuous HEAD                  All times    "3 28 10"
3228090273001                             Continuous HEAD                  All times    "4 28 10"
3228090273001                             Continuous HEAD                  All times    "5 28 10"
3228090273001                             Continuous HEAD                  All times    "6 28 10"
3228090273001                             Continuous HEAD                  All times    "7 28 10"
3228090273001                             Continuous HEAD                  All times    "8 28 10"
3228090273001                             Continuous HEAD                  All times    "9 28 10"
3228090273001                             Continuous HEAD                  All times    "10 28 10"
3228090273001                             Continuous HEAD                  All times    "11 28 10"
3228090273001                             Continuous HEAD                  All times    "12 28 10"
3228090273001                             Continuous HEAD                  All times    "13 28 10"
3230090283401                             Continuous HEAD                  All times    "1 28 9"
3230090283401                             Continuous HEAD                  All times    "2 28 9"
3230090283401                             Continuous HEAD                  All times    "3 28 9"
3230090283401                             Continuous HEAD                  All times    "4 28 9"
3230090283401                             Continuous HEAD                  All times    "5 28 9"
3230090283401                             Continuous HEAD                  All times    "6 28 9"
3230090283401                             Continuous HEAD                  All times    "7 28 9"
3230090283401                             Continuous HEAD                  All times    "8 28 9"
3230090283401                             Continuous HEAD                  All times    "9 28 9"
3230090283401                             Continuous HEAD                  All times    "10 28 9"
3230090283401                             Continuous HEAD                  All times    "11 28 9"
3230090283401                             Continuous HEAD                  All times    "12 28 9"
3230090283401                             Continuous HEAD                  All times    "13 28 9"
3230090285201                             Continuous HEAD                  All times    "1 28 8"
3230090285201                             Continuous HEAD                  All times    "2 28 8"
3230090285201                             Continuous HEAD                  All times    "3 28 8"
3230090285201                             Continuous HEAD                  All times    "4 28 8"
3230090285201                             Continuous HEAD                  All times    "5 28 8"
3230090285201                             Continuous HEAD                  All times    "6 28 8"
3230090285201                             Continuous HEAD                  All times    "7 28 8"
3230090285201                             Continuous HEAD                  All times    "8 28 8"
3230090285201                             Continuous HEAD                  All times    "9 28 8"
3230090285201                             Continuous HEAD                  All times    "10 28 8"
3230090285201                             Continuous HEAD                  All times    "11 28 8"
3230090285201                             Continuous HEAD                  All times    "12 28 8"
3230090285201                             Continuous HEAD                  All times    "13 28 8"
3230090303801                             Continuous HEAD                  All times    "1 28 6"
3230090303801                             Continuous HEAD                  All times    "2 28 6"
3230090303801                             Continuous HEAD                  All times    "3 28 6"
3230090303801                             Continuous HEAD                  All times    "4 28 6"
3230090303801                             Continuous HEAD                  All times    "5 28 6"
3230090303801                             Continuous HEAD                  All times    "6 28 6"
3230090303801                             Continuous HEAD                  All times    "7 28 6"
3230090303801                             Continuous HEAD                  All times    "8 28 6"
3230090303801                             Continuous HEAD                  All times    "9 28 6"
3230090303801                             Continuous HEAD                  All times    "10 28 6"
3230090303801                             Continuous HEAD                  All times    "11 28 6"
3230090303801                             Continuous HEAD                  All times    "12 28 6"
3230090303801                             Continuous HEAD                  All times    "13 28 6"
3231090213701                             Continuous HEAD                  All times    "4 28 19"
3231090213701                             Continuous HEAD                  All times    "5 28 19"
3231090213701                             Continuous HEAD                  All times    "6 28 19"
3231090213701                             Continuous HEAD                  All times    "7 28 19"
3231090213701                             Continuous HEAD                  All times    "8 28 19"
3231090213701                             Continuous HEAD                  All times    "9 28 19"
3231090213701                             Continuous HEAD                  All times    "10 28 19"
3231090213701                             Continuous HEAD                  All times    "11 28 19"
3231090213701                             Continuous HEAD                  All times    "12 28 19"
3231090213701                             Continuous HEAD                  All times    "13 28 19"
3232090212001                             Continuous HEAD                  All times    "4 27 20"
3232090212001                             Continuous HEAD                  All times    "5 27 20"
3232090212001                             Continuous HEAD                  All times    "6 27 20"
3232090212001                             Continuous HEAD                  All times    "7 27 20"
3232090212001                             Continuous HEAD                  All times    "8 27 20"
3232090212001                             Continuous HEAD                  All times    "9 27 20"
3232090212001                             Continuous HEAD                  All times    "10 27 20"
3232090212001                             Continuous HEAD                  All times    "11 27 20"
3232090212001                             Continuous HEAD                  All times    "12 27 20"
3232090212001                             Continuous HEAD                  All times    "13 27 20"
3232090273201                             Continuous HEAD                  All times    "1 28 10"
3232090273201                             Continuous HEAD                  All times    "2 28 10"
3232090273201                             Continuous HEAD                  All times    "3 28 10"
3232090273201                             Continuous HEAD                  All times    "4 28 10"
3232090273201                             Continuous HEAD                  All times    "5 28 10"
3232090273201                             Continuous HEAD                  All times    "6 28 10"
3232090273201                             Continuous HEAD                  All times    "7 28 10"
3232090273201                             Continuous HEAD                  All times    "8 28 10"
3232090273201                             Continuous HEAD                  All times    "9 28 10"
3232090273201                             Continuous HEAD                  All times    "10 28 10"
3232090273201                             Continuous HEAD                  All times    "11 28 10"
3232090273201                             Continuous HEAD                  All times    "12 28 10"
3232090273201                             Continuous HEAD                  All times    "13 28 10"
3232090273202                             Continuous HEAD                  All times    "1 28 10"
3232090273202                             Continuous HEAD                  All times    "2 28 10"
3232090273202                             Continuous HEAD                  All times    "3 28 10"
3232090273202                             Continuous HEAD                  All times    "4 28 10"
3232090273202                             Continuous HEAD                  All times    "5 28 10"
3232090273202                             Continuous HEAD                  All times    "6 28 10"
3232090273202                             Continuous HEAD                  All times    "7 28 10"
3232090273202                             Continuous HEAD                  All times    "8 28 10"
3232090273202                             Continuous HEAD                  All times    "9 28 10"
3232090273202                             Continuous HEAD                  All times    "10 28 10"
3232090273202                             Continuous HEAD                  All times    "11 28 10"
3232090273202                             Continuous HEAD                  All times    "12 28 10"
3232090273202                             Continuous HEAD                  All times    "13 28 10"
3232090294401                             Continuous HEAD                  All times    "1 28 7"
3232090294401                             Continuous HEAD                  All times    "2 28 7"
3232090294401                             Continuous HEAD                  All times    "3 28 7"
3232090294401                             Continuous HEAD                  All times    "4 28 7"
3232090294401                             Continuous HEAD                  All times    "5 28 7"
3232090294401                             Continuous HEAD                  All times    "6 28 7"
3232090294401                             Continuous HEAD                  All times    "7 28 7"
3232090294401                             Continuous HEAD                  All times    "8 28 7"
3232090294401                             Continuous HEAD                  All times    "9 28 7"
3232090294401                             Continuous HEAD                  All times    "10 28 7"
3232090294401                             Continuous HEAD                  All times    "11 28 7"
3232090294401                             Continuous HEAD                  All times    "12 28 7"
3232090294401                             Continuous HEAD                  All times    "13 28 7"
3233090163101                             Continuous HEAD                  All times    "4 27 27"
3233090163101                             Continuous HEAD                  All times    "5 27 27"
3233090163101                             Continuous HEAD                  All times    "6 27 27"
3233090163101                             Continuous HEAD                  All times    "7 27 27"
3233090163101                             Continuous HEAD                  All times    "8 27 27"
3233090163101                             Continuous HEAD                  All times    "9 27 27"
3233090163101                             Continuous HEAD                  All times    "10 27 27"
3233090163101                             Continuous HEAD                  All times    "11 27 27"
3233090163101                             Continuous HEAD                  All times    "12 27 27"
3233090163101                             Continuous HEAD                  All times    "13 27 27"
3233090292201                             Continuous HEAD                  All times    "1 28 7"
3233090292201                             Continuous HEAD                  All times    "2 28 7"
3233090292201                             Continuous HEAD                  All times    "3 28 7"
3233090292201                             Continuous HEAD                  All times    "4 28 7"
3233090292201                             Continuous HEAD                  All times    "5 28 7"
3233090292201                             Continuous HEAD                  All times    "6 28 7"
3233090292201                             Continuous HEAD                  All times    "7 28 7"
3233090292201                             Continuous HEAD                  All times    "8 28 7"
3233090292201                             Continuous HEAD                  All times    "9 28 7"
3233090292201                             Continuous HEAD                  All times    "10 28 7"
3233090292201                             Continuous HEAD                  All times    "11 28 7"
3233090292201                             Continuous HEAD                  All times    "12 28 7"
3233090292201                             Continuous HEAD                  All times    "13 28 7"
3233090302101                             Continuous HEAD                  All times    "1 28 6"
3233090302101                             Continuous HEAD                  All times    "2 28 6"
3233090302101                             Continuous HEAD                  All times    "3 28 6"
3233090302101                             Continuous HEAD                  All times    "4 28 6"
3233090302101                             Continuous HEAD                  All times    "5 28 6"
3233090302101                             Continuous HEAD                  All times    "6 28 6"
3233090302101                             Continuous HEAD                  All times    "7 28 6"
3233090302101                             Continuous HEAD                  All times    "8 28 6"
3233090302101                             Continuous HEAD                  All times    "9 28 6"
3233090302101                             Continuous HEAD                  All times    "10 28 6"
3233090302101                             Continuous HEAD                  All times    "11 28 6"
3233090302101                             Continuous HEAD                  All times    "12 28 6"
3233090302101                             Continuous HEAD                  All times    "13 28 6"
3233090312201                             Continuous HEAD                  All times    "1 28 4"
3233090312201                             Continuous HEAD                  All times    "2 28 4"
3233090312201                             Continuous HEAD                  All times    "3 28 4"
3233090312201                             Continuous HEAD                  All times    "4 28 4"
3233090312201                             Continuous HEAD                  All times    "5 28 4"
3233090312201                             Continuous HEAD                  All times    "6 28 4"
3233090312201                             Continuous HEAD                  All times    "7 28 4"
3233090312201                             Continuous HEAD                  All times    "8 28 4"
3233090312201                             Continuous HEAD                  All times    "9 28 4"
3233090312201                             Continuous HEAD                  All times    "10 28 4"
3233090312201                             Continuous HEAD                  All times    "11 28 4"
3233090312201                             Continuous HEAD                  All times    "12 28 4"
3233090312201                             Continuous HEAD                  All times    "13 28 4"
3234090313501                             Continuous HEAD                  All times    "1 28 4"
3234090313501                             Continuous HEAD                  All times    "2 28 4"
3234090313501                             Continuous HEAD                  All times    "3 28 4"
3234090313501                             Continuous HEAD                  All times    "4 28 4"
3234090313501                             Continuous HEAD                  All times    "5 28 4"
3234090313501                             Continuous HEAD                  All times    "6 28 4"
3234090313501                             Continuous HEAD                  All times    "7 28 4"
3234090313501                             Continuous HEAD                  All times    "8 28 4"
3234090313501                             Continuous HEAD                  All times    "9 28 4"
3234090313501                             Continuous HEAD                  All times    "10 28 4"
3234090313501                             Continuous HEAD                  All times    "11 28 4"
3234090313501                             Continuous HEAD                  All times    "12 28 4"
3234090313501                             Continuous HEAD                  All times    "13 28 4"
3234090314601                             Continuous HEAD                  All times    "1 28 4"
3234090314601                             Continuous HEAD                  All times    "2 28 4"
3234090314601                             Continuous HEAD                  All times    "3 28 4"
3234090314601                             Continuous HEAD                  All times    "4 28 4"
3234090314601                             Continuous HEAD                  All times    "5 28 4"
3234090314601                             Continuous HEAD                  All times    "6 28 4"
3234090314601                             Continuous HEAD                  All times    "7 28 4"
3234090314601                             Continuous HEAD                  All times    "8 28 4"
3234090314601                             Continuous HEAD                  All times    "9 28 4"
3234090314601                             Continuous HEAD                  All times    "10 28 4"
3234090314601                             Continuous HEAD                  All times    "11 28 4"
3234090314601                             Continuous HEAD                  All times    "12 28 4"
3234090314601                             Continuous HEAD                  All times    "13 28 4"
3235090281601                             Continuous HEAD                  All times    "1 28 9"
3235090281601                             Continuous HEAD                  All times    "2 28 9"
3235090281601                             Continuous HEAD                  All times    "3 28 9"
3235090281601                             Continuous HEAD                  All times    "4 28 9"
3235090281601                             Continuous HEAD                  All times    "5 28 9"
3235090281601                             Continuous HEAD                  All times    "6 28 9"
3235090281601                             Continuous HEAD                  All times    "7 28 9"
3235090281601                             Continuous HEAD                  All times    "8 28 9"
3235090281601                             Continuous HEAD                  All times    "9 28 9"
3235090281601                             Continuous HEAD                  All times    "10 28 9"
3235090281601                             Continuous HEAD                  All times    "11 28 9"
3235090281601                             Continuous HEAD                  All times    "12 28 9"
3235090281601                             Continuous HEAD                  All times    "13 28 9"
3235090305701                             Continuous HEAD                  All times    "1 28 5"
3235090305701                             Continuous HEAD                  All times    "2 28 5"
3235090305701                             Continuous HEAD                  All times    "3 28 5"
3235090305701                             Continuous HEAD                  All times    "4 28 5"
3235090305701                             Continuous HEAD                  All times    "5 28 5"
3235090305701                             Continuous HEAD                  All times    "6 28 5"
3235090305701                             Continuous HEAD                  All times    "7 28 5"
3235090305701                             Continuous HEAD                  All times    "8 28 5"
3235090305701                             Continuous HEAD                  All times    "9 28 5"
3235090305701                             Continuous HEAD                  All times    "10 28 5"
3235090305701                             Continuous HEAD                  All times    "11 28 5"
3235090305701                             Continuous HEAD                  All times    "12 28 5"
3235090305701                             Continuous HEAD                  All times    "13 28 5"
3236090213801                             Continuous HEAD                  All times    "4 27 19"
3236090213801                             Continuous HEAD                  All times    "5 27 19"
3236090213801                             Continuous HEAD                  All times    "6 27 19"
3236090213801                             Continuous HEAD                  All times    "7 27 19"
3236090213801                             Continuous HEAD                  All times    "8 27 19"
3236090213801                             Continuous HEAD                  All times    "9 27 19"
3236090213801                             Continuous HEAD                  All times    "10 27 19"
3236090213801                             Continuous HEAD                  All times    "11 27 19"
3236090213801                             Continuous HEAD                  All times    "12 27 19"
3236090213801                             Continuous HEAD                  All times    "13 27 19"
3236090314201                             Continuous HEAD                  All times    "1 28 4"
3236090314201                             Continuous HEAD                  All times    "2 28 4"
3236090314201                             Continuous HEAD                  All times    "3 28 4"
3236090314201                             Continuous HEAD                  All times    "4 28 4"
3236090314201                             Continuous HEAD                  All times    "5 28 4"
3236090314201                             Continuous HEAD                  All times    "6 28 4"
3236090314201                             Continuous HEAD                  All times    "7 28 4"
3236090314201                             Continuous HEAD                  All times    "8 28 4"
3236090314201                             Continuous HEAD                  All times    "9 28 4"
3236090314201                             Continuous HEAD                  All times    "10 28 4"
3236090314201                             Continuous HEAD                  All times    "11 28 4"
3236090314201                             Continuous HEAD                  All times    "12 28 4"
3236090314201                             Continuous HEAD                  All times    "13 28 4"
3238090285001                             Continuous HEAD                  All times    "1 28 8"
3238090285001                             Continuous HEAD                  All times    "2 28 8"
3238090285001                             Continuous HEAD                  All times    "3 28 8"
3238090285001                             Continuous HEAD                  All times    "4 28 8"
3238090285001                             Continuous HEAD                  All times    "5 28 8"
3238090285001                             Continuous HEAD                  All times    "6 28 8"
3238090285001                             Continuous HEAD                  All times    "7 28 8"
3238090285001                             Continuous HEAD                  All times    "8 28 8"
3238090285001                             Continuous HEAD                  All times    "9 28 8"
3238090285001                             Continuous HEAD                  All times    "10 28 8"
3238090285001                             Continuous HEAD                  All times    "11 28 8"
3238090285001                             Continuous HEAD                  All times    "12 28 8"
3238090285001                             Continuous HEAD                  All times    "13 28 8"
3239090271001                             Continuous HEAD                  All times    "1 28 11"
3239090271001                             Continuous HEAD                  All times    "2 28 11"
3239090271001                             Continuous HEAD                  All times    "3 28 11"
3239090271001                             Continuous HEAD                  All times    "4 28 11"
3239090271001                             Continuous HEAD                  All times    "5 28 11"
3239090271001                             Continuous HEAD                  All times    "6 28 11"
3239090271001                             Continuous HEAD                  All times    "7 28 11"
3239090271001                             Continuous HEAD                  All times    "8 28 11"
3239090271001                             Continuous HEAD                  All times    "9 28 11"
3239090271001                             Continuous HEAD                  All times    "10 28 11"
3239090271001                             Continuous HEAD                  All times    "11 28 11"
3239090271001                             Continuous HEAD                  All times    "12 28 11"
3239090271001                             Continuous HEAD                  All times    "13 28 11"
3240090274801                             Continuous HEAD                  All times    "1 28 10"
3240090274801                             Continuous HEAD                  All times    "2 28 10"
3240090274801                             Continuous HEAD                  All times    "3 28 10"
3240090274801                             Continuous HEAD                  All times    "4 28 10"
3240090274801                             Continuous HEAD                  All times    "5 28 10"
3240090274801                             Continuous HEAD                  All times    "6 28 10"
3240090274801                             Continuous HEAD                  All times    "7 28 10"
3240090274801                             Continuous HEAD                  All times    "8 28 10"
3240090274801                             Continuous HEAD                  All times    "9 28 10"
3240090274801                             Continuous HEAD                  All times    "10 28 10"
3240090274801                             Continuous HEAD                  All times    "11 28 10"
3240090274801                             Continuous HEAD                  All times    "12 28 10"
3240090274801                             Continuous HEAD                  All times    "13 28 10"
3244090195201                             Continuous HEAD                  All times    "4 27 22"
3244090195201                             Continuous HEAD                  All times    "5 27 22"
3244090195201                             Continuous HEAD                  All times    "6 27 22"
3244090195201                             Continuous HEAD                  All times    "7 27 22"
3244090195201                             Continuous HEAD                  All times    "8 27 22"
3244090195201                             Continuous HEAD                  All times    "9 27 22"
3244090195201                             Continuous HEAD                  All times    "10 27 22"
3244090195201                             Continuous HEAD                  All times    "11 27 22"
3244090195201                             Continuous HEAD                  All times    "12 27 22"
3244090195201                             Continuous HEAD                  All times    "13 27 22"
3245090274501                             Continuous HEAD                  All times    "1 28 10"
3245090274501                             Continuous HEAD                  All times    "2 28 10"
3245090274501                             Continuous HEAD                  All times    "3 28 10"
3245090274501                             Continuous HEAD                  All times    "4 28 10"
3245090274501                             Continuous HEAD                  All times    "5 28 10"
3245090274501                             Continuous HEAD                  All times    "6 28 10"
3245090274501                             Continuous HEAD                  All times    "7 28 10"
3245090274501                             Continuous HEAD                  All times    "8 28 10"
3245090274501                             Continuous HEAD                  All times    "9 28 10"
3245090274501                             Continuous HEAD                  All times    "10 28 10"
3245090274501                             Continuous HEAD                  All times    "11 28 10"
3245090274501                             Continuous HEAD                  All times    "12 28 10"
3245090274501                             Continuous HEAD                  All times    "13 28 10"
3245090292801                             Continuous HEAD                  All times    "1 28 7"
3245090292801                             Continuous HEAD                  All times    "2 28 7"
3245090292801                             Continuous HEAD                  All times    "3 28 7"
3245090292801                             Continuous HEAD                  All times    "4 28 7"
3245090292801                             Continuous HEAD                  All times    "5 28 7"
3245090292801                             Continuous HEAD                  All times    "6 28 7"
3245090292801                             Continuous HEAD                  All times    "7 28 7"
3245090292801                             Continuous HEAD                  All times    "8 28 7"
3245090292801                             Continuous HEAD                  All times    "9 28 7"
3245090292801                             Continuous HEAD                  All times    "10 28 7"
3245090292801                             Continuous HEAD                  All times    "11 28 7"
3245090292801                             Continuous HEAD                  All times    "12 28 7"
3245090292801                             Continuous HEAD                  All times    "13 28 7"
3248090290701                             Continuous HEAD                  All times    "1 28 8"
3248090290701                             Continuous HEAD                  All times    "2 28 8"
3248090290701                             Continuous HEAD                  All times    "3 28 8"
3248090290701                             Continuous HEAD                  All times    "4 28 8"
3248090290701                             Continuous HEAD                  All times    "5 28 8"
3248090290701                             Continuous HEAD                  All times    "6 28 8"
3248090290701                             Continuous HEAD                  All times    "7 28 8"
3248090290701                             Continuous HEAD                  All times    "8 28 8"
3248090290701                             Continuous HEAD                  All times    "9 28 8"
3248090290701                             Continuous HEAD                  All times    "10 28 8"
3248090290701                             Continuous HEAD                  All times    "11 28 8"
3248090290701                             Continuous HEAD                  All times    "12 28 8"
3248090290701                             Continuous HEAD                  All times    "13 28 8"
3250090211801                             Continuous HEAD                  All times    "4 27 20"
3250090211801                             Continuous HEAD                  All times    "5 27 20"
3250090211801                             Continuous HEAD                  All times    "6 27 20"
3250090211801                             Continuous HEAD                  All times    "7 27 20"
3250090211801                             Continuous HEAD                  All times    "8 27 20"
3250090211801                             Continuous HEAD                  All times    "9 27 20"
3250090211801                             Continuous HEAD                  All times    "10 27 20"
3250090211801                             Continuous HEAD                  All times    "11 27 20"
3250090211801                             Continuous HEAD                  All times    "12 27 20"
3250090211801                             Continuous HEAD                  All times    "13 27 20"
3251090291501                             Continuous HEAD                  All times    "1 28 8"
3251090291501                             Continuous HEAD                  All times    "2 28 8"
3251090291501                             Continuous HEAD                  All times    "3 28 8"
3251090291501                             Continuous HEAD                  All times    "4 28 8"
3251090291501                             Continuous HEAD                  All times    "5 28 8"
3251090291501                             Continuous HEAD                  All times    "6 28 8"
3251090291501                             Continuous HEAD                  All times    "7 28 8"
3251090291501                             Continuous HEAD                  All times    "8 28 8"
3251090291501                             Continuous HEAD                  All times    "9 28 8"
3251090291501                             Continuous HEAD                  All times    "10 28 8"
3251090291501                             Continuous HEAD                  All times    "11 28 8"
3251090291501                             Continuous HEAD                  All times    "12 28 8"
3251090291501                             Continuous HEAD                  All times    "13 28 8"
3252090321601                             Continuous HEAD                  All times    "1 28 3"
3252090321601                             Continuous HEAD                  All times    "2 28 3"
3252090321601                             Continuous HEAD                  All times    "3 28 3"
3252090321601                             Continuous HEAD                  All times    "4 28 3"
3252090321601                             Continuous HEAD                  All times    "5 28 3"
3252090321601                             Continuous HEAD                  All times    "6 28 3"
3252090321601                             Continuous HEAD                  All times    "7 28 3"
3252090321601                             Continuous HEAD                  All times    "8 28 3"
3252090321601                             Continuous HEAD                  All times    "9 28 3"
3252090321601                             Continuous HEAD                  All times    "10 28 3"
3252090321601                             Continuous HEAD                  All times    "11 28 3"
3252090321601                             Continuous HEAD                  All times    "12 28 3"
3252090321601                             Continuous HEAD                  All times    "13 28 3"
3256090301301                             Continuous HEAD                  All times    "1 28 6"
3256090301301                             Continuous HEAD                  All times    "2 28 6"
3256090301301                             Continuous HEAD                  All times    "3 28 6"
3256090301301                             Continuous HEAD                  All times    "4 28 6"
3256090301301                             Continuous HEAD                  All times    "5 28 6"
3256090301301                             Continuous HEAD                  All times    "6 28 6"
3256090301301                             Continuous HEAD                  All times    "7 28 6"
3256090301301                             Continuous HEAD                  All times    "8 28 6"
3256090301301                             Continuous HEAD                  All times    "9 28 6"
3256090301301                             Continuous HEAD                  All times    "10 28 6"
3256090301301                             Continuous HEAD                  All times    "11 28 6"
3256090301301                             Continuous HEAD                  All times    "12 28 6"
3256090301301                             Continuous HEAD                  All times    "13 28 6"
3257090191501                             Continuous HEAD                  All times    "4 27 23"
3257090191501                             Continuous HEAD                  All times    "5 27 23"
3257090191501                             Continuous HEAD                  All times    "6 27 23"
3257090191501                             Continuous HEAD                  All times    "7 27 23"
3257090191501                             Continuous HEAD                  All times    "8 27 23"
3257090191501                             Continuous HEAD                  All times    "9 27 23"
3257090191501                             Continuous HEAD                  All times    "10 27 23"
3257090191501                             Continuous HEAD                  All times    "11 27 23"
3257090191501                             Continuous HEAD                  All times    "12 27 23"
3257090191501                             Continuous HEAD                  All times    "13 27 23"
3259090121001                             Continuous HEAD                  All times    "4 26 34"
3259090121001                             Continuous HEAD                  All times    "5 26 34"
3259090121001                             Continuous HEAD                  All times    "6 26 34"
3259090121001                             Continuous HEAD                  All times    "7 26 34"
3259090121001                             Continuous HEAD                  All times    "8 26 34"
3259090121001                             Continuous HEAD                  All times    "9 26 34"
3259090121001                             Continuous HEAD                  All times    "10 26 34"
3259090121001                             Continuous HEAD                  All times    "11 26 34"
3259090121001                             Continuous HEAD                  All times    "12 26 34"
3259090121001                             Continuous HEAD                  All times    "13 26 34"
3300090182401                             Continuous HEAD                  All times    "4 26 24"
3300090182401                             Continuous HEAD                  All times    "5 26 24"
3300090182401                             Continuous HEAD                  All times    "6 26 24"
3300090182401                             Continuous HEAD                  All times    "7 26 24"
3300090182401                             Continuous HEAD                  All times    "8 26 24"
3300090182401                             Continuous HEAD                  All times    "9 26 24"
3300090182401                             Continuous HEAD                  All times    "10 26 24"
3300090182401                             Continuous HEAD                  All times    "11 26 24"
[...]
    130      1     17      8      -3978.    
    131      1     17      9      -3220.    
    132      4     17     11      -1532.    
    133     13     17     13      -1914.    
    134      4     17     14      -1674.    
    135      4     17     16      -5275.    
    136     13     17     18      -1834.    
    137     13     17     19      -1831.    
    138     13     17     21      -3341.    
    139      4     17     22      -3097.    
    140     13     17     24      -240.2    
    141     13     17     26      -424.7    
    142     13     17     27      -274.6    
    143     13     17     32      -253.1    
    144     13     17     34      -253.1    
    145      1     16      3      -3599.    
    146      1     16      5      -4496.    
    147      1     16      6      -3797.    
    148      1     16      8      -3137.    
    149      1     16      9      -2495.    
    150      4     16     11      -2554.    
    151      4     16     13      -2215.    
    152      9     16     14      -1995.    
    153      4     16     16      -2876.    
    154     13     16     18      -1163.    
    155     13     16     19      -2360.    
    156     13     16     21      -1843.    
    157      4     16     22      -1972.    
    158     13     16     24      -274.6    
    159     13     16     26      -1012.    
    160      8     16     27      -253.1    
    161      9     16     32      -126.5    
    162      9     16     34      -126.5    
    163      1     14      3      -2458.    
    164      1     14      5      -4260.    
    165      1     14      6      -3199.    
    166      4     14      8      -2843.    
    167     13     14      9      -1492.    
    168     13     14     11      -674.2    
    169      4     14     13      -2378.    
    170     13     14     14      -2103.    
    171     13     14     16      -1791.    
    172      4     14     18      -1175.    
    173      4     14     19      -1788.    
    174      4     14     21      -3144.    
    175     13     14     22      -928.6    
    176     13     14     24      -40.37    
    177     13     14     27      -253.1    
    178     13     14     29      -885.8    
    179     13     14     30      -253.1    
    180     13     14     32      -506.2    
    181      1     12      3      -1111.    
    182      1     12      5      -3446.    
    183      1     12      6      -3046.    
    184      4     12      8      -2357.    
    185      4     12      9      -1141.    
    186      4     12     11      -2663.    
    187      4     12     13      -1561.    
    188     13     12     14      -929.1    
    189      4     12     16      -323.0    
    190     13     12     18      -161.5    
    191     13     12     19      -1048.    
    192      4     12     21      -2548.    
    193     13     12     22      -480.5    
    194     13     12     26      -126.5    
    195     13     12     29      -3163.    
    196      1     11      3      -3669.    
    197      1     11      5      -3566.    
    198      1     11      6      -1708.    
    199      4     11      8      -2212.    
    200     13     11      9      -2869.    
    201      4     11     11      -556.2    
    202     13     11     13      -1034.    
    203     13     11     14      -3266.    
    204     13     11     16      -2192.    
    205     13     11     18      -514.8    
    206     13     11     19      -458.3    
    207      4     11     21      -1023.    
    208     13     11     22      -68.64    
    209     13     11     24      -126.5    
    210     13     11     29      -253.1    
    211      1      9      3      -3848.    
    212      1      9      5      -2227.    
    213      1      9      6      -3518.    
    214     13      9      8      -1835.    
    215     13      9      9      -1768.    
    216      4      9     11      -1171.    
    217      4      9     13      -1613.    
    218      4      9     14      -1853.    
    219     13      9     16      -446.1    
    220     13      9     18      -926.6    
    221     13      9     19      -652.1    
    222     13      9     24      -253.1    
    223      1      8      3      -3253.    
    224      1      8      5      -2611.    
    225      1      8      6      -2202.    
    226      4      8      8      -1887.    
    227      4      8      9      -2481.    
    228      4      8     11      -1270.    
    229     13      8     13      -1441.    
    230     13      8     14      -446.1    
    231     13      8     19      -1139.    
    232     13      8     21      -126.5    
    233     13      8     22      -253.1    
    234      8      8     30      -126.5    
    235      1      6      3      -2788.    
    236      1      6      5      -1440.    
    237      1      6      6      -2170.    
    238     13      6      8      -3232.    
    239     13      6      9      -2396.    
    240     13      6     11      -2972.    
    241     13      6     13      -1505.    
    242     13      6     18      -413.9    
    243     13      6     24      -253.1    
    244      4      6     26      -34.32    
    245      4      6     27      -789.3    
    246     13      6     34      -379.6    
    247      2      4      3      -1125.    
    248     13      4      5      -1357.    
    249     13      4      6      -2364.    
    250     13      4      8      -1789.    
    251      4      4      9      -522.8    
    252      4      4     11      -355.3    
    253     13      4     13      -847.9    
    254      4      4     19      -1078.    
    255      4      4     21      -2128.    
    256      4      4     22      -575.3    
    257      4      4     26      -137.3    
    258      4      4     27      -1853.    
    259     13      4     30      -126.5    
    260     13      4     34      -287.4    
    261      1      3      3      -1262.    
    262      2      3      5      -1286.    
    263     13      3      6      -904.4    
    264     13      3      8      -1514.    
    265      4      3      9      -1163.    
    266     13      3     11      -730.8    
    267     13      3     13      -361.4    
    268      4      3     19      -2717.    
    269      4      3     21      -2993.    
    270      4      3     22      -892.3    
    271      4      3     24      -1020.    
    272      4      3     26      -1225.    
    273      4      3     27      -514.8    
    274     13      3     32      -253.1    
    275     13      3     34      -126.5    
    276      9      4     23      -6446.    
    277     10      5     20      -565.5    
    278      9      5     23      -121.3    
    279     10      8      9      -570.1    
    280     10     10     28      -565.5    
    281     10     13     23      -565.5    
    282      9     13     30      -121.3    
    283      9     15     31      -121.3    
    284      9     15     33      -121.3    
    285      9     15     34      -242.7    
    286     10     16     13      -565.5    
    287     10     16     20      -1252.    
    288      9     21     23      -121.3    
    289     10     23      4      -570.1    
    290     10     23     13      -1131.    
    291      9     23     34      -686.9    
    292      7     28      4      -151.7    
    293      7     28      7      -106.2    
    294     10     28     17      -1697.    

 OPENED ./external/rch18.dat
 FILE TYPE:OPEN/CLOSE   UNIT 1131   STATUS:OLD                 
 FORMAT:FORMATTED              ACCESS:SEQUENTIAL          
 ACTION:READ                


 REUSING SFRS FROM LAST STRESS PERIOD

 INNER ITERATION SUMMARY
 --------------------------------------------------------------------------------------------------------------------------------
     TOTAL      OUTER     INNER                    MAXIMUM CHANGE        MAXIMUM                  MAXIMUM RESIDUAL        MAXIMUM
 ITERATION  ITERATION ITERATION                    MODEL-(CELLID)         CHANGE                    MODEL-(CELLID)       RESIDUAL
 --------------------------------------------------------------------------------------------------------------------------------
          1         1         1                     1_GWF-(1,2,3) -0.1536386E-01                   1_GWF-(11,18,7)   150.5055    
          2         1         2                   1_GWF-(1,21,10) -0.1133780E-01                   1_GWF-(11,28,3)  -9.202044    
          3         1         3                     1_GWF-(1,3,3)  0.2445114E-03                   1_GWF-(6,23,31)   1.369175    
          4         2         1                   1_GWF-(1,21,11) -0.7005704E-05                   1_GWF-(6,25,31)  0.2854055    


 INNER ITERATION SUMMARY
 --------------------------------------------------------------------------------------------------------------------------------
     TOTAL      OUTER     INNER                    MAXIMUM CHANGE        MAXIMUM                  MAXIMUM RESIDUAL        MAXIMUM
 ITERATION  ITERATION ITERATION                    MODEL-(CELLID)         CHANGE                    MODEL-(CELLID)       RESIDUAL
 --------------------------------------------------------------------------------------------------------------------------------
          1         1         1                   1_GWF-(1,21,11) -0.3367341E-01                   1_GWF-(11,21,7)   161.3675    
          2         1         2                   1_GWF-(1,21,11) -0.8273877E-02                   1_GWF-(12,16,5)   21.06768    
          3         1         3                   1_GWF-(1,21,11) -0.9650556E-04                   1_GWF-(6,24,32)   2.619029    
          4         2         1                   1_GWF-(1,21,11) -0.3481767E-04                   1_GWF-(6,24,32)  0.8894398    


 INNER ITERATION SUMMARY
 --------------------------------------------------------------------------------------------------------------------------------
     TOTAL      OUTER     INNER                    MAXIMUM CHANGE        MAXIMUM                  MAXIMUM RESIDUAL        MAXIMUM
 ITERATION  ITERATION ITERATION                    MODEL-(CELLID)         CHANGE                    MODEL-(CELLID)       RESIDUAL
 --------------------------------------------------------------------------------------------------------------------------------
          1         1         1                   1_GWF-(1,21,11) -0.5846002E-01                  1_GWF-(11,18,10)   142.2996    
          2         1         2                   1_GWF-(1,21,11) -0.2183168E-01                    1_GWF-(12,6,7)   39.95973    
          3         1         3                   1_GWF-(1,21,11)  0.7107064E-03                   1_GWF-(11,20,7)   4.484313    
          4         2         1                   1_GWF-(1,21,11) -0.7404806E-04                   1_GWF-(6,23,33)   2.088428    


 INNER ITERATION SUMMARY
 --------------------------------------------------------------------------------------------------------------------------------
     TOTAL      OUTER     INNER                    MAXIMUM CHANGE        MAXIMUM                  MAXIMUM RESIDUAL        MAXIMUM
 ITERATION  ITERATION ITERATION                    MODEL-(CELLID)         CHANGE                    MODEL-(CELLID)       RESIDUAL
 --------------------------------------------------------------------------------------------------------------------------------
          1         1         1                   1_GWF-(1,21,11) -0.8395466E-01                  1_GWF-(11,18,10)   163.1786    
          2         1         2                   1_GWF-(1,21,11) -0.5096756E-01                    1_GWF-(12,6,7)   49.30508    
          3         1         3                   1_GWF-(1,21,11) -0.1843844E-03                   1_GWF-(11,21,7)   10.53614    
          4         1         4                   1_GWF-(1,21,11) -0.2639299E-03                    1_GWF-(6,8,28)   3.832701    
          5         2         1                   1_GWF-(1,21,11) -0.1011421E-03                    1_GWF-(6,8,28)   2.038983    


 INNER ITERATION SUMMARY
 --------------------------------------------------------------------------------------------------------------------------------
     TOTAL      OUTER     INNER                    MAXIMUM CHANGE        MAXIMUM                  MAXIMUM RESIDUAL        MAXIMUM
 ITERATION  ITERATION ITERATION                    MODEL-(CELLID)         CHANGE                    MODEL-(CELLID)       RESIDUAL
 --------------------------------------------------------------------------------------------------------------------------------
          1         1         1                   1_GWF-(1,21,11) -0.1071439                      1_GWF-(11,18,10)   219.0712    
          2         1         2                   1_GWF-(1,21,12) -0.6929904E-01                   1_GWF-(6,27,29)  -108.7679    
          3         1         3                   1_GWF-(1,21,12)  0.5272159E-02                   1_GWF-(11,20,8)   22.94378    
          4         1         4                   1_GWF-(1,21,11)  0.2404891E-02                     1_GWF-(9,4,5)   19.28173    
          5         1         5                   1_GWF-(1,21,11) -0.1716889E-02                     1_GWF-(9,3,5)   4.186391    
          6         2         1                   1_GWF-(1,21,11) -0.2001190E-03                   1_GWF-(11,22,7)  -1.807460    

 UBDSV1 SAVING           STO-SS ON UNIT   1111 AT TIME STEP      5, STRESS PERIOD     19
 UBDSV1 SAVING           STO-SY ON UNIT   1111 AT TIME STEP      5, STRESS PERIOD     19
 UBDSV1 SAVING     FLOW-JA-FACE ON UNIT   1111 AT TIME STEP      5, STRESS PERIOD     19
 UBDSV06 SAVING              WEL IN MODEL SHELLMOUND       PACKAGE SHELLMOUND      CONNECTED TO MODEL SHELLMOUND       PACKAGE WEL_0            ON UNIT   1111 AT TIME STEP      5, STRESS PERIOD     19
 UBDSV06 SAVING              RCH IN MODEL SHELLMOUND       PACKAGE SHELLMOUND      CONNECTED TO MODEL SHELLMOUND       PACKAGE RCHA             ON UNIT   1111 AT TIME STEP      5, STRESS PERIOD     19
 UBDSV06 SAVING              SFR IN MODEL SHELLMOUND       PACKAGE SHELLMOUND      CONNECTED TO MODEL SHELLMOUND       PACKAGE SFR              ON UNIT   1111 AT TIME STEP      5, STRESS PERIOD     19
 UBDSV06 SAVING     FLOW-JA-FACE IN MODEL SHELLMOUND       PACKAGE SFR             CONNECTED TO MODEL SHELLMOUND       PACKAGE SFR              ON UNIT   1042 AT TIME STEP      5, STRESS PERIOD     19
 UBDSV06 SAVING              GWF IN MODEL SHELLMOUND       PACKAGE SFR             CONNECTED TO MODEL SHELLMOUND       PACKAGE SHELLMOUND       ON UNIT   1042 AT TIME STEP      5, STRESS PERIOD     19
 UBDSV06 SAVING       EXT-INFLOW IN MODEL SHELLMOUND       PACKAGE SFR             CONNECTED TO MODEL SHELLMOUND       PACKAGE SFR              ON UNIT   1042 AT TIME STEP      5, STRESS PERIOD     19
 UBDSV06 SAVING         RAINFALL IN MODEL SHELLMOUND       PACKAGE SFR             CONNECTED TO MODEL SHELLMOUND       PACKAGE SFR              ON UNIT   1042 AT TIME STEP      5, STRESS PERIOD     19
 UBDSV06 SAVING           RUNOFF IN MODEL SHELLMOUND       PACKAGE SFR             CONNECTED TO MODEL SHELLMOUND       PACKAGE SFR              ON UNIT   1042 AT TIME STEP      5, STRESS PERIOD     19
 UBDSV06 SAVING      EVAPORATION IN MODEL SHELLMOUND       PACKAGE SFR             CONNECTED TO MODEL SHELLMOUND       PACKAGE SFR              ON UNIT   1042 AT TIME STEP      5, STRESS PERIOD     19
 UBDSV06 SAVING      EXT-OUTFLOW IN MODEL SHELLMOUND       PACKAGE SFR             CONNECTED TO MODEL SHELLMOUND       PACKAGE SFR              ON UNIT   1042 AT TIME STEP      5, STRESS PERIOD     19

 HEAD WILL BE SAVED ON UNIT 1112 AT END OF TIME STEP    5, STRESS PERIOD   19


  SFR BUDGET FOR ENTIRE MODEL AT END OF TIME STEP    5, STRESS PERIOD  19
  ------------------------------------------------------------------------------

     CUMULATIVE SFR      L**3       RATES FOR THIS TIME STEP      L**3/T
     ------------------                 ------------------------

           IN:                                      IN:
           ---                                      ---
          EXT-INFLOW =           0.0000            EXT-INFLOW =           0.0000
            RAINFALL =           0.0000              RAINFALL =           0.0000
              RUNOFF =           0.0000                RUNOFF =           0.0000
                 GWF =   648537817.9620                   GWF =           0.0000
         EVAPORATION =           0.0000           EVAPORATION =           0.0000
         EXT-OUTFLOW =           0.0000           EXT-OUTFLOW =           0.0000

            TOTAL IN =   648537817.9620              TOTAL IN =           0.0000

          OUT:                                     OUT:
          ----                                     ----
          EXT-INFLOW =           0.0000            EXT-INFLOW =           0.0000
            RAINFALL =           0.0000              RAINFALL =           0.0000
              RUNOFF =           0.0000                RUNOFF =           0.0000
                 GWF =    31240380.7344                   GWF =           0.0000
         EVAPORATION =           0.0000           EVAPORATION =           0.0000
         EXT-OUTFLOW =   617297437.2276           EXT-OUTFLOW =           0.0000

           TOTAL OUT =   648537817.9620             TOTAL OUT =           0.0000

            IN - OUT =       1.1921E-07              IN - OUT =           0.0000

 PERCENT DISCREPANCY =           0.00     PERCENT DISCREPANCY =           0.00



  VOLUME BUDGET FOR ENTIRE MODEL AT END OF TIME STEP    5, STRESS PERIOD  19
  ---------------------------------------------------------------------------------------------------

     CUMULATIVE VOLUME      L**3       RATES FOR THIS TIME STEP      L**3/T          PACKAGE NAME    
     ------------------                 ------------------------                     ----------------

           IN:                                      IN:
           ---                                      ---
              STO-SS =     8596289.7701                STO-SS =        1308.8844     STORAGE         
              STO-SY =  3097213816.8236                STO-SY =      483670.8911     STORAGE         
                 WEL =           0.0000                   WEL =           0.0000     WEL_0           
                 RCH =   388958154.5228                   RCH =       43551.9791     RCHA            
                 SFR =    33794106.6331                   SFR =           0.0000     SFR             

            TOTAL IN =  3528562367.7496              TOTAL IN =      528531.7546

          OUT:                                     OUT:
          ----                                     ----
              STO-SS =      838147.2277                STO-SS =           0.0000     STORAGE         
              STO-SY =   211427227.6124                STO-SY =           0.0000     STORAGE         
                 WEL =  2675385552.4420                   WEL =      528508.3253     WEL_0           
                 RCH =           0.0000                   RCH =           0.0000     RCHA            
                 SFR =   642923283.1095                   SFR =           0.0000     SFR             

           TOTAL OUT =  3530574210.3917             TOTAL OUT =      528508.3253

            IN - OUT =    -2011842.6421              IN - OUT =          23.4293

 PERCENT DISCREPANCY =          -0.06     PERCENT DISCREPANCY =           0.00




         TIME SUMMARY AT END OF TIME STEP    5 IN STRESS PERIOD   19
                    SECONDS     MINUTES      HOURS       DAYS        YEARS
                    -----------------------------------------------------------
   TIME STEP LENGTH 6.06970E+06 1.01162E+05  1686.0      70.251     0.19234    
 STRESS PERIOD TIME 1.58112E+07 2.63520E+05  4392.0      183.00     0.50103    
         TOTAL TIME 5.52355E+08 9.20592E+06 1.53432E+05  6393.0      17.503    
