                                   MODFLOW 6
                U.S. GEOLOGICAL SURVEY MODULAR HYDROLOGIC MODEL
                          GROUNDWATER FLOW MODEL (GWF)
                            VERSION 6.2.0 10/22/2020

   MODFLOW 6 compiled Oct 29 2020 12:19:52 with IFORT compiler (ver. 19.10.3)

This software has been approved for release by the U.S. Geological 
Survey (USGS). Although the software has been subjected to rigorous 
review, the USGS reserves the right to update the software as needed 
pursuant to further analysis and review. No warranty, expressed or 
implied, is made by the USGS or the U.S. Government as to the 
functionality of the software and related material nor shall the 
fact of release constitute any such warranty. Furthermore, the 
software is released on condition that neither the USGS nor the U.S. 
Government shall be held liable for any damages resulting from its 
authorized or unauthorized use. Also refer to the USGS Water 
Resources Software User Rights Notice for complete use, copyright, 
and distribution information.


System command used to initiate simulation:
/Users/aleaf/Documents/GitHub/modflow-setup/bin/mac/mf6

MODFLOW was compiled using uniform precision.

Real Variables
  KIND: 8
  TINY (smallest non-zero value):    2.225074-308
  HUGE (largest value):    1.797693+308
  PRECISION: 15
  BIT SIZE: 64

Integer Variables
  KIND: 4
  HUGE (largest value): 2147483647
  BIT SIZE: 32

Long Integer Variables
  KIND: 8
  HUGE (largest value): 9223372036854775807
  BIT SIZE: 64

Logical Variables
  KIND: 4
  BIT SIZE: 32
 

 OPENED shellmound.dis
 FILE TYPE:DIS6                   UNIT 1005   STATUS:OLD                 
 FORMAT:FORMATTED              ACCESS:SEQUENTIAL          
 ACTION:READ                


 OPENED shellmound.ic
 FILE TYPE:IC6                    UNIT 1006   STATUS:OLD                 
 FORMAT:FORMATTED              ACCESS:SEQUENTIAL          
 ACTION:READ                


 OPENED shellmound.npf
 FILE TYPE:NPF6                   UNIT 1007   STATUS:OLD                 
 FORMAT:FORMATTED              ACCESS:SEQUENTIAL          
 ACTION:READ                


 OPENED shellmound.sto
 FILE TYPE:STO6                   UNIT 1008   STATUS:OLD                 
 FORMAT:FORMATTED              ACCESS:SEQUENTIAL          
 ACTION:READ                


 OPENED shellmound.rcha
 FILE TYPE:RCH6                   UNIT 1009   STATUS:OLD                 
 FORMAT:FORMATTED              ACCESS:SEQUENTIAL          
 ACTION:READ                


 OPENED shellmound.oc
 FILE TYPE:OC6                    UNIT 1010   STATUS:OLD                 
 FORMAT:FORMATTED              ACCESS:SEQUENTIAL          
 ACTION:READ                


 OPENED shellmound.sfr
 FILE TYPE:SFR6                   UNIT 1011   STATUS:OLD                 
 FORMAT:FORMATTED              ACCESS:SEQUENTIAL          
 ACTION:READ                


 OPENED shellmound.wel
 FILE TYPE:WEL6                   UNIT 1012   STATUS:OLD                 
 FORMAT:FORMATTED              ACCESS:SEQUENTIAL          
 ACTION:READ                


 OPENED shellmound.obs
 FILE TYPE:OBS6                   UNIT 1013   STATUS:OLD                 
 FORMAT:FORMATTED              ACCESS:SEQUENTIAL          
 ACTION:READ                

 NAMEFILE OPTIONS:
    STRESS PACKAGE INPUT WILL BE PRINTED FOR ALL MODEL STRESS PACKAGES
    FLOWS WILL BE SAVED TO BUDGET FILE SPECIFIED IN OUTPUT CONTROL
    NEWTON-RAPHSON method enabled for the model.

 DIS -- STRUCTURED GRID DISCRETIZATION PACKAGE, VERSION 2 : 3/27/2014 - INPUT READ FROM UNIT 1005


 # shellmound model version 0.post258.dev0+g2de0f7d
 # File generated by Flopy version 3.3.4 on 05/19/2021 at 11:49:15.
 # via modflow-setup version 0.post258.dev0+g2de0f7d at 2021-05-19 11:49:16
 PROCESSING DISCRETIZATION OPTIONS
    MODEL LENGTH UNIT IS METERS
    XORIGIN SPECIFIED AS     500955.000000000    
    YORIGIN SPECIFIED AS     1175285.00000000    
    ANGROT SPECIFIED AS     0.00000000000000    
 END OF DISCRETIZATION OPTIONS
 PROCESSING DISCRETIZATION DIMENSIONS
    NLAY =      13
    NROW =      30
    NCOL =      35
 END OF DISCRETIZATION DIMENSIONS
 PROCESSING GRIDDATA

                     DELR =   1000.000    

                     DELC =   1000.000    

 OPENED ./external/top.dat
 FILE TYPE:OPEN/CLOSE   UNIT 1015   STATUS:OLD                 
 FORMAT:FORMATTED              ACCESS:SEQUENTIAL          
 ACTION:READ                


 OPENED ./external/botm_000.dat
 FILE TYPE:OPEN/CLOSE   UNIT 1016   STATUS:OLD                 
 FORMAT:FORMATTED              ACCESS:SEQUENTIAL          
 ACTION:READ                


 OPENED ./external/botm_001.dat
 FILE TYPE:OPEN/CLOSE   UNIT 1017   STATUS:OLD                 
 FORMAT:FORMATTED              ACCESS:SEQUENTIAL          
 ACTION:READ                


 OPENED ./external/botm_002.dat
 FILE TYPE:OPEN/CLOSE   UNIT 1018   STATUS:OLD                 
 FORMAT:FORMATTED              ACCESS:SEQUENTIAL          
 ACTION:READ                


 OPENED ./external/botm_003.dat
 FILE TYPE:OPEN/CLOSE   UNIT 1019   STATUS:OLD                 
 FORMAT:FORMATTED              ACCESS:SEQUENTIAL          
 ACTION:READ                


 OPENED ./external/botm_004.dat
 FILE TYPE:OPEN/CLOSE   UNIT 1020   STATUS:OLD                 
 FORMAT:FORMATTED              ACCESS:SEQUENTIAL          
 ACTION:READ                


 OPENED ./external/botm_005.dat
 FILE TYPE:OPEN/CLOSE   UNIT 1021   STATUS:OLD                 
 FORMAT:FORMATTED              ACCESS:SEQUENTIAL          
 ACTION:READ                


 OPENED ./external/botm_006.dat
 FILE TYPE:OPEN/CLOSE   UNIT 1022   STATUS:OLD                 
 FORMAT:FORMATTED              ACCESS:SEQUENTIAL          
 ACTION:READ                


 OPENED ./external/botm_007.dat
 FILE TYPE:OPEN/CLOSE   UNIT 1023   STATUS:OLD                 
 FORMAT:FORMATTED              ACCESS:SEQUENTIAL          
 ACTION:READ                


 OPENED ./external/botm_008.dat
 FILE TYPE:OPEN/CLOSE   UNIT 1024   STATUS:OLD                 
 FORMAT:FORMATTED              ACCESS:SEQUENTIAL          
 ACTION:READ                


 OPENED ./external/botm_009.dat
 FILE TYPE:OPEN/CLOSE   UNIT 1025   STATUS:OLD                 
 FORMAT:FORMATTED              ACCESS:SEQUENTIAL          
 ACTION:READ                


 OPENED ./external/botm_010.dat
 FILE TYPE:OPEN/CLOSE   UNIT 1026   STATUS:OLD                 
 FORMAT:FORMATTED              ACCESS:SEQUENTIAL          
 ACTION:READ                


 OPENED ./external/botm_011.dat
 FILE TYPE:OPEN/CLOSE   UNIT 1027   STATUS:OLD                 
 FORMAT:FORMATTED              ACCESS:SEQUENTIAL          
 ACTION:READ                


 OPENED ./external/botm_012.dat
 FILE TYPE:OPEN/CLOSE   UNIT 1028   STATUS:OLD                 
 FORMAT:FORMATTED              ACCESS:SEQUENTIAL          
 ACTION:READ                


 OPENED ./external/idomain_000.dat
 FILE TYPE:OPEN/CLOSE   UNIT 1029   STATUS:OLD                 
 FORMAT:FORMATTED              ACCESS:SEQUENTIAL          
 ACTION:READ                


 OPENED ./external/idomain_001.dat
 FILE TYPE:OPEN/CLOSE   UNIT 1030   STATUS:OLD                 
 FORMAT:FORMATTED              ACCESS:SEQUENTIAL          
 ACTION:READ                


 OPENED ./external/idomain_002.dat
 FILE TYPE:OPEN/CLOSE   UNIT 1031   STATUS:OLD                 
 FORMAT:FORMATTED              ACCESS:SEQUENTIAL          
 ACTION:READ                


 OPENED ./external/idomain_003.dat
 FILE TYPE:OPEN/CLOSE   UNIT 1032   STATUS:OLD                 
 FORMAT:FORMATTED              ACCESS:SEQUENTIAL          
 ACTION:READ                


 OPENED ./external/idomain_004.dat
 FILE TYPE:OPEN/CLOSE   UNIT 1033   STATUS:OLD                 
 FORMAT:FORMATTED              ACCESS:SEQUENTIAL          
 ACTION:READ                


 OPENED ./external/idomain_005.dat
 FILE TYPE:OPEN/CLOSE   UNIT 1034   STATUS:OLD                 
 FORMAT:FORMATTED              ACCESS:SEQUENTIAL          
 ACTION:READ                


 OPENED ./external/idomain_006.dat
 FILE TYPE:OPEN/CLOSE   UNIT 1035   STATUS:OLD                 
 FORMAT:FORMATTED              ACCESS:SEQUENTIAL          
 ACTION:READ                


 OPENED ./external/idomain_007.dat
 FILE TYPE:OPEN/CLOSE   UNIT 1036   STATUS:OLD                 
 FORMAT:FORMATTED              ACCESS:SEQUENTIAL          
 ACTION:READ                


 OPENED ./external/idomain_008.dat
 FILE TYPE:OPEN/CLOSE   UNIT 1037   STATUS:OLD                 
 FORMAT:FORMATTED              ACCESS:SEQUENTIAL          
 ACTION:READ                


 OPENED ./external/idomain_009.dat
 FILE TYPE:OPEN/CLOSE   UNIT 1038   STATUS:OLD                 
 FORMAT:FORMATTED              ACCESS:SEQUENTIAL          
 ACTION:READ                


 OPENED ./external/idomain_010.dat
 FILE TYPE:OPEN/CLOSE   UNIT 1039   STATUS:OLD                 
 FORMAT:FORMATTED              ACCESS:SEQUENTIAL          
 ACTION:READ                


 OPENED ./external/idomain_011.dat
 FILE TYPE:OPEN/CLOSE   UNIT 1040   STATUS:OLD                 
 FORMAT:FORMATTED              ACCESS:SEQUENTIAL          
 ACTION:READ                


 OPENED ./external/idomain_012.dat
 FILE TYPE:OPEN/CLOSE   UNIT 1041   STATUS:OLD                 
 FORMAT:FORMATTED              ACCESS:SEQUENTIAL          
 ACTION:READ                

 END PROCESSING GRIDDATA

 THE SPECIFIED IDOMAIN RESULTS IN A REDUCED NUMBER OF CELLS.
 NUMBER OF USER NODES: 13650
 NUMBER OF NODES IN SOLUTION: 9117



 NPF -- NODE PROPERTY FLOW PACKAGE, VERSION 1, 3/30/2015 INPUT READ FROM UNIT 1007


 # shellmound model version 0.post258.dev0+g2de0f7d
 # File generated by Flopy version 3.3.4 on 05/19/2021 at 11:49:15.
 # via modflow-setup version 0.post258.dev0+g2de0f7d at 2021-05-19 11:49:16
 PROCESSING NPF OPTIONS
    CELL-BY-CELL FLOW INFORMATION WILL BE SAVED TO BINARY FILE WHENEVER ICBCFL IS NOT ZERO.
 END OF NPF OPTIONS

 WEL   -- WEL PACKAGE, VERSION 8, 2/22/2014 INPUT READ FROM UNIT 1012
 # shellmound model version 0.post258.dev0+g2de0f7d
 # File generated by Flopy version 3.3.4 on 05/19/2021 at 11:49:16.
 # via modflow-setup version 0.post258.dev0+g2de0f7d at 2021-05-19 11:49:16

 PROCESSING WEL OPTIONS
    WEL BOUNDARIES HAVE NAMES IN LAST COLUMN.
    LISTS OF WEL CELLS WILL BE PRINTED.
    WEL FLOWS WILL BE PRINTED TO LISTING FILE.
    FLOWS WILL BE SAVED TO BUDGET FILE SPECIFIED IN OUTPUT CONTROL
 END OF WEL OPTIONS

 PROCESSING WEL DIMENSIONS
    MAXBOUND =     337
 END OF WEL DIMENSIONS

 RCH   -- RCH PACKAGE, VERSION 8, 2/22/2014 INPUT READ FROM UNIT 1009
 # shellmound model version 0.post258.dev0+g2de0f7d
 # File generated by Flopy version 3.3.4 on 05/19/2021 at 11:49:15.
 # via modflow-setup version 0.post258.dev0+g2de0f7d at 2021-05-19 11:49:16

 PROCESSING RCH OPTIONS
    RECHARGE INPUT WILL BE READ AS ARRAY(S).
    LISTS OF RCH CELLS WILL BE PRINTED.
    FLOWS WILL BE SAVED TO BUDGET FILE SPECIFIED IN OUTPUT CONTROL
 END OF RCH OPTIONS

 SFR   -- SFR PACKAGE, VERSION 8, 2/22/2014 INPUT READ FROM UNIT 1011
 # shellmound model version 0.post258.dev0+g2de0f7d
 # File created by modflow-setup version 0.post258.dev0+g2de0f7d at 2021-05-19 11:49:16
 # MODFLOW-6 SFR input; created by SFRmaker v. 0.8.0.post10.dev0+gb359076

 PROCESSING SFR OPTIONS
    FLOWS WILL BE SAVED TO BUDGET FILE SPECIFIED IN OUTPUT CONTROL

 OPENED shellmound.sfr.out.bin
 FILE TYPE:DATA(BINARY)   UNIT 1042   STATUS:REPLACE             
 FORMAT:UNFORMATTED            ACCESS:STREAM              
 ACTION:READWRITE           

    SFR  BUDGET  WILL BE SAVED TO FILE: shellmound.sfr.out.bin                                                                                                                                                                                                                                                                                                                                                                                                                                                                                                                                                                                                                                                                                                                                                                                                                                                                                                                                                                                                                                                                                                                                                                                                                                                                                                                                                                                                                                                                                                                                                                                                                                                                                                                                                                                                                                                                                                                                                                                                                                                                                                                                                                                                                                                                                                                                                                                                                                                                                                                                                                                                                                                                                                                                                                                                                                                                                                                                                                                                                                                                                                                                                                                                                                                                                                                                                                                                                                                                                                                                                                                                                                                                                                                                                                                                                                                                                                                                                                                                                                                                                                                                                                                                                                                                                                                                                                                                                                                                                                                                                                                                                                                                                                                                                                                                                                                                                                                                                                                                                                                                                                                                                                                  
    OPENED ON UNIT:    1042

 OPENED shellmound.sfr.stage.bin
 FILE TYPE:DATA(BINARY)   UNIT 1043   STATUS:REPLACE             
 FORMAT:UNFORMATTED            ACCESS:STREAM              
 ACTION:READWRITE           

    SFR  STAGE  WILL BE SAVED TO FILE: shellmound.sfr.stage.bin                                                                                                                                                                                                                                                                                                                                                                                                                                                                                                                                                                                                                                                                                                                                                                                                                                                                                                                                                                                                                                                                                                                                                                                                                                                                                                                                                                                                                                                                                                                                                                                                                                                                                                                                                                                                                                                                                                                                                                                                                                                                                                                                                                                                                                                                                                                                                                                                                                                                                                                                                                                                                                                                                                                                                                                                                                                                                                                                                                                                                                                                                                                                                                                                                                                                                                                                                                                                                                                                                                                                                                                                                                                                                                                                                                                                                                                                                                                                                                                                                                                                                                                                                                                                                                                                                                                                                                                                                                                                                                                                                                                                                                                                                                                                                                                                                                                                                                                                                                                                                                                                                                                                                                                
    OPENED ON UNIT:    1043

 OPENED shellmound.sfr.obs
 FILE TYPE:OBS   UNIT 1044   STATUS:OLD                 
 FORMAT:FORMATTED              ACCESS:SEQUENTIAL          
 ACTION:READ                

    UNIT CONVERSION VALUE (86400.00000000000) SPECIFIED.
    AUXILIARY SFR VARIABLE: LINE_ID         
 END OF SFR OPTIONS

 PROCESSING SFR DIMENSIONS
    NREACHES = 253
 END OF SFR DIMENSIONS

 OPENED external/shellmound_packagedata.dat
 FILE TYPE:OPEN/CLOSE   UNIT 1045   STATUS:OLD                 
 FORMAT:FORMATTED              ACCESS:SEQUENTIAL          
 ACTION:READ                


 PROCESSING SFR PACKAGEDATA
 #rno k i j rlen rwid rgrd rtp rbth rhk man ncon ustrf ndv line_id
 END OF SFR PACKAGEDATA

 PROCESSING SFR CONNECTIONDATA
 END OF SFR CONNECTIONDATA

 IC -- INITIAL CONDITIONS PACKAGE, VERSION 8, 3/28/2015 INPUT READ FROM UNIT 1006
 # shellmound model version 0.post258.dev0+g2de0f7d
 # File generated by Flopy version 3.3.4 on 05/19/2021 at 11:49:15.
 # via modflow-setup version 0.post258.dev0+g2de0f7d at 2021-05-19 11:49:16
 PROCESSING GRIDDATA

 OPENED ./external/strt_000.dat
 FILE TYPE:OPEN/CLOSE   UNIT 1046   STATUS:OLD                 
 FORMAT:FORMATTED              ACCESS:SEQUENTIAL          
 ACTION:READ                


 OPENED ./external/strt_001.dat
 FILE TYPE:OPEN/CLOSE   UNIT 1047   STATUS:OLD                 
 FORMAT:FORMATTED              ACCESS:SEQUENTIAL          
 ACTION:READ                


 OPENED ./external/strt_002.dat
 FILE TYPE:OPEN/CLOSE   UNIT 1048   STATUS:OLD                 
 FORMAT:FORMATTED              ACCESS:SEQUENTIAL          
 ACTION:READ                


 OPENED ./external/strt_003.dat
 FILE TYPE:OPEN/CLOSE   UNIT 1049   STATUS:OLD                 
 FORMAT:FORMATTED              ACCESS:SEQUENTIAL          
 ACTION:READ                


 OPENED ./external/strt_004.dat
 FILE TYPE:OPEN/CLOSE   UNIT 1050   STATUS:OLD                 
 FORMAT:FORMATTED              ACCESS:SEQUENTIAL          
 ACTION:READ                


 OPENED ./external/strt_005.dat
 FILE TYPE:OPEN/CLOSE   UNIT 1051   STATUS:OLD                 
 FORMAT:FORMATTED              ACCESS:SEQUENTIAL          
 ACTION:READ                


 OPENED ./external/strt_006.dat
 FILE TYPE:OPEN/CLOSE   UNIT 1052   STATUS:OLD                 
 FORMAT:FORMATTED              ACCESS:SEQUENTIAL          
 ACTION:READ                


 OPENED ./external/strt_007.dat
 FILE TYPE:OPEN/CLOSE   UNIT 1053   STATUS:OLD                 
 FORMAT:FORMATTED              ACCESS:SEQUENTIAL          
 ACTION:READ                


 OPENED ./external/strt_008.dat
 FILE TYPE:OPEN/CLOSE   UNIT 1054   STATUS:OLD                 
 FORMAT:FORMATTED              ACCESS:SEQUENTIAL          
 ACTION:READ                


 OPENED ./external/strt_009.dat
 FILE TYPE:OPEN/CLOSE   UNIT 1055   STATUS:OLD                 
 FORMAT:FORMATTED              ACCESS:SEQUENTIAL          
 ACTION:READ                


 OPENED ./external/strt_010.dat
 FILE TYPE:OPEN/CLOSE   UNIT 1056   STATUS:OLD                 
 FORMAT:FORMATTED              ACCESS:SEQUENTIAL          
 ACTION:READ                


 OPENED ./external/strt_011.dat
 FILE TYPE:OPEN/CLOSE   UNIT 1057   STATUS:OLD                 
 FORMAT:FORMATTED              ACCESS:SEQUENTIAL          
 ACTION:READ                


 OPENED ./external/strt_012.dat
 FILE TYPE:OPEN/CLOSE   UNIT 1058   STATUS:OLD                 
 FORMAT:FORMATTED              ACCESS:SEQUENTIAL          
 ACTION:READ                

 END PROCESSING GRIDDATA
 PROCESSING GRIDDATA

                ICELLTYPE = 1

 OPENED ./external/k_000.dat
 FILE TYPE:OPEN/CLOSE   UNIT 1059   STATUS:OLD                 
 FORMAT:FORMATTED              ACCESS:SEQUENTIAL          
 ACTION:READ                


 OPENED ./external/k_001.dat
 FILE TYPE:OPEN/CLOSE   UNIT 1060   STATUS:OLD                 
 FORMAT:FORMATTED              ACCESS:SEQUENTIAL          
 ACTION:READ                


 OPENED ./external/k_002.dat
 FILE TYPE:OPEN/CLOSE   UNIT 1061   STATUS:OLD                 
 FORMAT:FORMATTED              ACCESS:SEQUENTIAL          
 ACTION:READ                


 OPENED ./external/k_003.dat
 FILE TYPE:OPEN/CLOSE   UNIT 1062   STATUS:OLD                 
 FORMAT:FORMATTED              ACCESS:SEQUENTIAL          
 ACTION:READ                


 OPENED ./external/k_004.dat
 FILE TYPE:OPEN/CLOSE   UNIT 1063   STATUS:OLD                 
 FORMAT:FORMATTED              ACCESS:SEQUENTIAL          
 ACTION:READ                


 OPENED ./external/k_005.dat
 FILE TYPE:OPEN/CLOSE   UNIT 1064   STATUS:OLD                 
 FORMAT:FORMATTED              ACCESS:SEQUENTIAL          
 ACTION:READ                


 OPENED ./external/k_006.dat
 FILE TYPE:OPEN/CLOSE   UNIT 1065   STATUS:OLD                 
 FORMAT:FORMATTED              ACCESS:SEQUENTIAL          
 ACTION:READ                


 OPENED ./external/k_007.dat
 FILE TYPE:OPEN/CLOSE   UNIT 1066   STATUS:OLD                 
 FORMAT:FORMATTED              ACCESS:SEQUENTIAL          
 ACTION:READ                


 OPENED ./external/k_008.dat
 FILE TYPE:OPEN/CLOSE   UNIT 1067   STATUS:OLD                 
 FORMAT:FORMATTED              ACCESS:SEQUENTIAL          
 ACTION:READ                


 OPENED ./external/k_009.dat
 FILE TYPE:OPEN/CLOSE   UNIT 1068   STATUS:OLD                 
 FORMAT:FORMATTED              ACCESS:SEQUENTIAL          
 ACTION:READ                


 OPENED ./external/k_010.dat
 FILE TYPE:OPEN/CLOSE   UNIT 1069   STATUS:OLD                 
 FORMAT:FORMATTED              ACCESS:SEQUENTIAL          
 ACTION:READ                


 OPENED ./external/k_011.dat
 FILE TYPE:OPEN/CLOSE   UNIT 1070   STATUS:OLD                 
 FORMAT:FORMATTED              ACCESS:SEQUENTIAL          
 ACTION:READ                


 OPENED ./external/k_012.dat
 FILE TYPE:OPEN/CLOSE   UNIT 1071   STATUS:OLD                 
 FORMAT:FORMATTED              ACCESS:SEQUENTIAL          
 ACTION:READ                


 OPENED ./external/k33_000.dat
 FILE TYPE:OPEN/CLOSE   UNIT 1072   STATUS:OLD                 
 FORMAT:FORMATTED              ACCESS:SEQUENTIAL          
 ACTION:READ                


 OPENED ./external/k33_001.dat
 FILE TYPE:OPEN/CLOSE   UNIT 1073   STATUS:OLD                 
 FORMAT:FORMATTED              ACCESS:SEQUENTIAL          
 ACTION:READ                


 OPENED ./external/k33_002.dat
 FILE TYPE:OPEN/CLOSE   UNIT 1074   STATUS:OLD                 
 FORMAT:FORMATTED              ACCESS:SEQUENTIAL          
 ACTION:READ                


 OPENED ./external/k33_003.dat
 FILE TYPE:OPEN/CLOSE   UNIT 1075   STATUS:OLD                 
 FORMAT:FORMATTED              ACCESS:SEQUENTIAL          
 ACTION:READ                


 OPENED ./external/k33_004.dat
 FILE TYPE:OPEN/CLOSE   UNIT 1076   STATUS:OLD                 
 FORMAT:FORMATTED              ACCESS:SEQUENTIAL          
 ACTION:READ                


 OPENED ./external/k33_005.dat
 FILE TYPE:OPEN/CLOSE   UNIT 1077   STATUS:OLD                 
 FORMAT:FORMATTED              ACCESS:SEQUENTIAL          
 ACTION:READ                


 OPENED ./external/k33_006.dat
 FILE TYPE:OPEN/CLOSE   UNIT 1078   STATUS:OLD                 
 FORMAT:FORMATTED              ACCESS:SEQUENTIAL          
 ACTION:READ                


 OPENED ./external/k33_007.dat
 FILE TYPE:OPEN/CLOSE   UNIT 1079   STATUS:OLD                 
 FORMAT:FORMATTED              ACCESS:SEQUENTIAL          
 ACTION:READ                


 OPENED ./external/k33_008.dat
 FILE TYPE:OPEN/CLOSE   UNIT 1080   STATUS:OLD                 
 FORMAT:FORMATTED              ACCESS:SEQUENTIAL          
 ACTION:READ                


 OPENED ./external/k33_009.dat
 FILE TYPE:OPEN/CLOSE   UNIT 1081   STATUS:OLD                 
 FORMAT:FORMATTED              ACCESS:SEQUENTIAL          
 ACTION:READ                


 OPENED ./external/k33_010.dat
 FILE TYPE:OPEN/CLOSE   UNIT 1082   STATUS:OLD                 
 FORMAT:FORMATTED              ACCESS:SEQUENTIAL          
 ACTION:READ                


 OPENED ./external/k33_011.dat
 FILE TYPE:OPEN/CLOSE   UNIT 1083   STATUS:OLD                 
 FORMAT:FORMATTED              ACCESS:SEQUENTIAL          
 ACTION:READ                


 OPENED ./external/k33_012.dat
 FILE TYPE:OPEN/CLOSE   UNIT 1084   STATUS:OLD                 
 FORMAT:FORMATTED              ACCESS:SEQUENTIAL          
 ACTION:READ                

 K22 not provided.  Assuming K22 = K.
 END PROCESSING GRIDDATA

 STO -- STORAGE PACKAGE, VERSION 1, 5/19/2014 INPUT READ FROM UNIT 1008


 # shellmound model version 0.post258.dev0+g2de0f7d
 # File generated by Flopy version 3.3.4 on 05/19/2021 at 11:49:15.
 # via modflow-setup version 0.post258.dev0+g2de0f7d at 2021-05-19 11:49:16
 PROCESSING STORAGE OPTIONS
    CELL-BY-CELL FLOW INFORMATION WILL BE SAVED TO BINARY FILE WHENEVER ICBCFL IS NOT ZERO.
 END OF STORAGE OPTIONS
 PROCESSING GRIDDATA

                 ICONVERT = 1

 OPENED ./external/ss_000.dat
 FILE TYPE:OPEN/CLOSE   UNIT 1085   STATUS:OLD                 
 FORMAT:FORMATTED              ACCESS:SEQUENTIAL          
 ACTION:READ                


 OPENED ./external/ss_001.dat
 FILE TYPE:OPEN/CLOSE   UNIT 1086   STATUS:OLD                 
 FORMAT:FORMATTED              ACCESS:SEQUENTIAL          
 ACTION:READ                


 OPENED ./external/ss_002.dat
 FILE TYPE:OPEN/CLOSE   UNIT 1087   STATUS:OLD                 
 FORMAT:FORMATTED              ACCESS:SEQUENTIAL          
 ACTION:READ                


 OPENED ./external/ss_003.dat
 FILE TYPE:OPEN/CLOSE   UNIT 1088   STATUS:OLD                 
 FORMAT:FORMATTED              ACCESS:SEQUENTIAL          
 ACTION:READ                


 OPENED ./external/ss_004.dat
 FILE TYPE:OPEN/CLOSE   UNIT 1089   STATUS:OLD                 
 FORMAT:FORMATTED              ACCESS:SEQUENTIAL          
 ACTION:READ                


 OPENED ./external/ss_005.dat
 FILE TYPE:OPEN/CLOSE   UNIT 1090   STATUS:OLD                 
 FORMAT:FORMATTED              ACCESS:SEQUENTIAL          
 ACTION:READ                


 OPENED ./external/ss_006.dat
 FILE TYPE:OPEN/CLOSE   UNIT 1091   STATUS:OLD                 
 FORMAT:FORMATTED              ACCESS:SEQUENTIAL          
 ACTION:READ                


 OPENED ./external/ss_007.dat
 FILE TYPE:OPEN/CLOSE   UNIT 1092   STATUS:OLD                 
 FORMAT:FORMATTED              ACCESS:SEQUENTIAL          
 ACTION:READ                


 OPENED ./external/ss_008.dat
 FILE TYPE:OPEN/CLOSE   UNIT 1093   STATUS:OLD                 
 FORMAT:FORMATTED              ACCESS:SEQUENTIAL          
 ACTION:READ                


 OPENED ./external/ss_009.dat
 FILE TYPE:OPEN/CLOSE   UNIT 1094   STATUS:OLD                 
 FORMAT:FORMATTED              ACCESS:SEQUENTIAL          
 ACTION:READ                


 OPENED ./external/ss_010.dat
 FILE TYPE:OPEN/CLOSE   UNIT 1095   STATUS:OLD                 
 FORMAT:FORMATTED              ACCESS:SEQUENTIAL          
 ACTION:READ                


 OPENED ./external/ss_011.dat
 FILE TYPE:OPEN/CLOSE   UNIT 1096   STATUS:OLD                 
 FORMAT:FORMATTED              ACCESS:SEQUENTIAL          
 ACTION:READ                


 OPENED ./external/ss_012.dat
 FILE TYPE:OPEN/CLOSE   UNIT 1097   STATUS:OLD                 
 FORMAT:FORMATTED              ACCESS:SEQUENTIAL          
 ACTION:READ                


 OPENED ./external/sy_000.dat
 FILE TYPE:OPEN/CLOSE   UNIT 1098   STATUS:OLD                 
 FORMAT:FORMATTED              ACCESS:SEQUENTIAL          
 ACTION:READ                


 OPENED ./external/sy_001.dat
 FILE TYPE:OPEN/CLOSE   UNIT 1099   STATUS:OLD                 
 FORMAT:FORMATTED              ACCESS:SEQUENTIAL          
 ACTION:READ                


 OPENED ./external/sy_002.dat
 FILE TYPE:OPEN/CLOSE   UNIT 1100   STATUS:OLD                 
 FORMAT:FORMATTED              ACCESS:SEQUENTIAL          
 ACTION:READ                


 OPENED ./external/sy_003.dat
 FILE TYPE:OPEN/CLOSE   UNIT 1101   STATUS:OLD                 
 FORMAT:FORMATTED              ACCESS:SEQUENTIAL          
 ACTION:READ                


 OPENED ./external/sy_004.dat
 FILE TYPE:OPEN/CLOSE   UNIT 1102   STATUS:OLD                 
 FORMAT:FORMATTED              ACCESS:SEQUENTIAL          
 ACTION:READ                


 OPENED ./external/sy_005.dat
 FILE TYPE:OPEN/CLOSE   UNIT 1103   STATUS:OLD                 
 FORMAT:FORMATTED              ACCESS:SEQUENTIAL          
 ACTION:READ                


 OPENED ./external/sy_006.dat
 FILE TYPE:OPEN/CLOSE   UNIT 1104   STATUS:OLD                 
 FORMAT:FORMATTED              ACCESS:SEQUENTIAL          
 ACTION:READ                


 OPENED ./external/sy_007.dat
 FILE TYPE:OPEN/CLOSE   UNIT 1105   STATUS:OLD                 
 FORMAT:FORMATTED              ACCESS:SEQUENTIAL          
 ACTION:READ                


 OPENED ./external/sy_008.dat
 FILE TYPE:OPEN/CLOSE   UNIT 1106   STATUS:OLD                 
 FORMAT:FORMATTED              ACCESS:SEQUENTIAL          
 ACTION:READ                


 OPENED ./external/sy_009.dat
 FILE TYPE:OPEN/CLOSE   UNIT 1107   STATUS:OLD                 
 FORMAT:FORMATTED              ACCESS:SEQUENTIAL          
 ACTION:READ                


 OPENED ./external/sy_010.dat
 FILE TYPE:OPEN/CLOSE   UNIT 1108   STATUS:OLD                 
 FORMAT:FORMATTED              ACCESS:SEQUENTIAL          
 ACTION:READ                


 OPENED ./external/sy_011.dat
 FILE TYPE:OPEN/CLOSE   UNIT 1109   STATUS:OLD                 
 FORMAT:FORMATTED              ACCESS:SEQUENTIAL          
 ACTION:READ                


 OPENED ./external/sy_012.dat
 FILE TYPE:OPEN/CLOSE   UNIT 1110   STATUS:OLD                 
 FORMAT:FORMATTED              ACCESS:SEQUENTIAL          
 ACTION:READ                

 END PROCESSING GRIDDATA

The observation utility is active for "SHELLMOUND"
 # shellmound model version 0.post258.dev0+g2de0f7d
 # File generated by Flopy version 3.3.4 on 05/19/2021 at 11:49:16.
 # via modflow-setup version 0.post258.dev0+g2de0f7d at 2021-05-19 11:49:16

Processing observation options:

Text output number of digits of precision set to: 10
The PRINT_INPUT option has been specified.


 OBSERVATIONS READ FROM FILE "shellmound.obs"
 ----------------------------------------------------------------------------------------------------------------------------------------------------------------------------------------------------------------------------
 NAME                                     TYPE                                       TIME         LOCATION DATA                              OUTPUT FILENAME                                                                 
 ----------------------------------------------------------------------------------------------------------------------------------------------------------------------------------------------------------------------------
 USGS:333145090261901                     CONTINUOUS  HEAD                           ALL TIMES    "1 28 12"                                  shellmound.head.obs                                                             
 USGS:333145090261901                     CONTINUOUS  HEAD                           ALL TIMES    "2 28 12"                                  shellmound.head.obs                                                             
 USGS:333145090261901                     CONTINUOUS  HEAD                           ALL TIMES    "3 28 12"                                  shellmound.head.obs                                                             
 USGS:333145090261901                     CONTINUOUS  HEAD                           ALL TIMES    "4 28 12"                                  shellmound.head.obs                                                             
 USGS:333145090261901                     CONTINUOUS  HEAD                           ALL TIMES    "5 28 12"                                  shellmound.head.obs                                                             
 USGS:333145090261901                     CONTINUOUS  HEAD                           ALL TIMES    "6 28 12"                                  shellmound.head.obs                                                             
 USGS:333145090261901                     CONTINUOUS  HEAD                           ALL TIMES    "7 28 12"                                  shellmound.head.obs                                                             
 USGS:333145090261901                     CONTINUOUS  HEAD                           ALL TIMES    "8 28 12"                                  shellmound.head.obs                                                             
 USGS:333145090261901                     CONTINUOUS  HEAD                           ALL TIMES    "9 28 12"                                  shellmound.head.obs                                                             
 USGS:333145090261901                     CONTINUOUS  HEAD                           ALL TIMES    "10 28 12"                                 shellmound.head.obs                                                             
 USGS:333145090261901                     CONTINUOUS  HEAD                           ALL TIMES    "11 28 12"                                 shellmound.head.obs                                                             
 USGS:333145090261901                     CONTINUOUS  HEAD                           ALL TIMES    "12 28 12"                                 shellmound.head.obs                                                             
 USGS:333145090261901                     CONTINUOUS  HEAD                           ALL TIMES    "13 28 12"                                 shellmound.head.obs                                                             
 USGS:333218090271101                     CONTINUOUS  HEAD                           ALL TIMES    "1 27 11"                                  shellmound.head.obs                                                             
 USGS:333218090271101                     CONTINUOUS  HEAD                           ALL TIMES    "2 27 11"                                  shellmound.head.obs                                                             
 USGS:333218090271101                     CONTINUOUS  HEAD                           ALL TIMES    "3 27 11"                                  shellmound.head.obs                                                             
 USGS:333218090271101                     CONTINUOUS  HEAD                           ALL TIMES    "4 27 11"                                  shellmound.head.obs                                                             
 USGS:333218090271101                     CONTINUOUS  HEAD                           ALL TIMES    "5 27 11"                                  shellmound.head.obs                                                             
 USGS:333218090271101                     CONTINUOUS  HEAD                           ALL TIMES    "6 27 11"                                  shellmound.head.obs                                                             
 USGS:333218090271101                     CONTINUOUS  HEAD                           ALL TIMES    "7 27 11"                                  shellmound.head.obs                                                             
 USGS:333218090271101                     CONTINUOUS  HEAD                           ALL TIMES    "8 27 11"                                  shellmound.head.obs                                                             
 USGS:333218090271101                     CONTINUOUS  HEAD                           ALL TIMES    "9 27 11"                                  shellmound.head.obs                                                             
 USGS:333218090271101                     CONTINUOUS  HEAD                           ALL TIMES    "10 27 11"                                 shellmound.head.obs                                                             
 USGS:333218090271101                     CONTINUOUS  HEAD                           ALL TIMES    "11 27 11"                                 shellmound.head.obs                                                             
 USGS:333218090271101                     CONTINUOUS  HEAD                           ALL TIMES    "12 27 11"                                 shellmound.head.obs                                                             
 USGS:333218090271101                     CONTINUOUS  HEAD                           ALL TIMES    "13 27 11"                                 shellmound.head.obs                                                             
 USGS:333229090294501                     CONTINUOUS  HEAD                           ALL TIMES    "1 27 7"                                   shellmound.head.obs                                                             
 USGS:333229090294501                     CONTINUOUS  HEAD                           ALL TIMES    "2 27 7"                                   shellmound.head.obs                                                             
 USGS:333229090294501                     CONTINUOUS  HEAD                           ALL TIMES    "3 27 7"                                   shellmound.head.obs                                                             
 USGS:333229090294501                     CONTINUOUS  HEAD                           ALL TIMES    "4 27 7"                                   shellmound.head.obs                                                             
 USGS:333229090294501                     CONTINUOUS  HEAD                           ALL TIMES    "5 27 7"                                   shellmound.head.obs                                                             
 USGS:333229090294501                     CONTINUOUS  HEAD                           ALL TIMES    "6 27 7"                                   shellmound.head.obs                                                             
 USGS:333229090294501                     CONTINUOUS  HEAD                           ALL TIMES    "7 27 7"                                   shellmound.head.obs                                                             
 USGS:333229090294501                     CONTINUOUS  HEAD                           ALL TIMES    "8 27 7"                                   shellmound.head.obs                                                             
 USGS:333229090294501                     CONTINUOUS  HEAD                           ALL TIMES    "9 27 7"                                   shellmound.head.obs                                                             
 USGS:333229090294501                     CONTINUOUS  HEAD                           ALL TIMES    "10 27 7"                                  shellmound.head.obs                                                             
 USGS:333229090294501                     CONTINUOUS  HEAD                           ALL TIMES    "11 27 7"                                  shellmound.head.obs                                                             
 USGS:333229090294501                     CONTINUOUS  HEAD                           ALL TIMES    "12 27 7"                                  shellmound.head.obs                                                             
 USGS:333229090294501                     CONTINUOUS  HEAD                           ALL TIMES    "13 27 7"                                  shellmound.head.obs                                                             
 USGS:333236090213801                     CONTINUOUS  HEAD                           ALL TIMES    "4 26 19"                                  shellmound.head.obs                                                             
 USGS:333236090213801                     CONTINUOUS  HEAD                           ALL TIMES    "5 26 19"                                  shellmound.head.obs                                                             
 USGS:333236090213801                     CONTINUOUS  HEAD                           ALL TIMES    "6 26 19"                                  shellmound.head.obs                                                             
 USGS:333236090213801                     CONTINUOUS  HEAD                           ALL TIMES    "7 26 19"                                  shellmound.head.obs                                                             
 USGS:333236090213801                     CONTINUOUS  HEAD                           ALL TIMES    "8 26 19"                                  shellmound.head.obs                                                             
 USGS:333236090213801                     CONTINUOUS  HEAD                           ALL TIMES    "9 26 19"                                  shellmound.head.obs                                                             
 USGS:333236090213801                     CONTINUOUS  HEAD                           ALL TIMES    "10 26 19"                                 shellmound.head.obs                                                             
 USGS:333236090213801                     CONTINUOUS  HEAD                           ALL TIMES    "11 26 19"                                 shellmound.head.obs                                                             
 USGS:333236090213801                     CONTINUOUS  HEAD                           ALL TIMES    "12 26 19"                                 shellmound.head.obs                                                             
 USGS:333236090213801                     CONTINUOUS  HEAD                           ALL TIMES    "13 26 19"                                 shellmound.head.obs                                                             
 USGS:333240090155001                     CONTINUOUS  HEAD                           ALL TIMES    "4 26 28"                                  shellmound.head.obs                                                             
 USGS:333240090155001                     CONTINUOUS  HEAD                           ALL TIMES    "5 26 28"                                  shellmound.head.obs                                                             
 USGS:333240090155001                     CONTINUOUS  HEAD                           ALL TIMES    "6 26 28"                                  shellmound.head.obs                                                             
 USGS:333240090155001                     CONTINUOUS  HEAD                           ALL TIMES    "7 26 28"                                  shellmound.head.obs                                                             
 USGS:333240090155001                     CONTINUOUS  HEAD                           ALL TIMES    "8 26 28"                                  shellmound.head.obs                                                             
 USGS:333240090155001                     CONTINUOUS  HEAD                           ALL TIMES    "9 26 28"                                  shellmound.head.obs                                                             
 USGS:333240090155001                     CONTINUOUS  HEAD                           ALL TIMES    "10 26 28"                                 shellmound.head.obs                                                             
 USGS:333240090155001                     CONTINUOUS  HEAD                           ALL TIMES    "11 26 28"                                 shellmound.head.obs                                                             
 USGS:333240090155001                     CONTINUOUS  HEAD                           ALL TIMES    "12 26 28"                                 shellmound.head.obs                                                             
 USGS:333240090155001                     CONTINUOUS  HEAD                           ALL TIMES    "13 26 28"                                 shellmound.head.obs                                                             
 USGS:333350090215801                     CONTINUOUS  HEAD                           ALL TIMES    "4 24 19"                                  shellmound.head.obs                                                             
 USGS:333350090215801                     CONTINUOUS  HEAD                           ALL TIMES    "5 24 19"                                  shellmound.head.obs                                                             
 USGS:333350090215801                     CONTINUOUS  HEAD                           ALL TIMES    "6 24 19"                                  shellmound.head.obs                                                             
 USGS:333350090215801                     CONTINUOUS  HEAD                           ALL TIMES    "7 24 19"                                  shellmound.head.obs                                                             
 USGS:333350090215801                     CONTINUOUS  HEAD                           ALL TIMES    "8 24 19"                                  shellmound.head.obs                                                             
 USGS:333350090215801                     CONTINUOUS  HEAD                           ALL TIMES    "9 24 19"                                  shellmound.head.obs                                                             
 USGS:333350090215801                     CONTINUOUS  HEAD                           ALL TIMES    "10 24 19"                                 shellmound.head.obs                                                             
 USGS:333350090215801                     CONTINUOUS  HEAD                           ALL TIMES    "11 24 19"                                 shellmound.head.obs                                                             
 USGS:333350090215801                     CONTINUOUS  HEAD                           ALL TIMES    "12 24 19"                                 shellmound.head.obs                                                             
 USGS:333350090215801                     CONTINUOUS  HEAD                           ALL TIMES    "13 24 19"                                 shellmound.head.obs                                                             
 USGS:333351090291402                     CONTINUOUS  HEAD                           ALL TIMES    "1 25 8"                                   shellmound.head.obs                                                             
 USGS:333351090291402                     CONTINUOUS  HEAD                           ALL TIMES    "2 25 8"                                   shellmound.head.obs                                                             
 USGS:333351090291402                     CONTINUOUS  HEAD                           ALL TIMES    "3 25 8"                                   shellmound.head.obs                                                             
 USGS:333351090291402                     CONTINUOUS  HEAD                           ALL TIMES    "4 25 8"                                   shellmound.head.obs                                                             
 USGS:333351090291402                     CONTINUOUS  HEAD                           ALL TIMES    "5 25 8"                                   shellmound.head.obs                                                             
 USGS:333351090291402                     CONTINUOUS  HEAD                           ALL TIMES    "6 25 8"                                   shellmound.head.obs                                                             
 USGS:333351090291402                     CONTINUOUS  HEAD                           ALL TIMES    "7 25 8"                                   shellmound.head.obs                                                             
 USGS:333351090291402                     CONTINUOUS  HEAD                           ALL TIMES    "8 25 8"                                   shellmound.head.obs                                                             
 USGS:333351090291402                     CONTINUOUS  HEAD                           ALL TIMES    "9 25 8"                                   shellmound.head.obs                                                             
 USGS:333351090291402                     CONTINUOUS  HEAD                           ALL TIMES    "10 25 8"                                  shellmound.head.obs                                                             
 USGS:333351090291402                     CONTINUOUS  HEAD                           ALL TIMES    "11 25 8"                                  shellmound.head.obs                                                             
 USGS:333351090291402                     CONTINUOUS  HEAD                           ALL TIMES    "12 25 8"                                  shellmound.head.obs                                                             
 USGS:333351090291402                     CONTINUOUS  HEAD                           ALL TIMES    "13 25 8"                                  shellmound.head.obs                                                             
 USGS:333402090240301                     CONTINUOUS  HEAD                           ALL TIMES    "4 24 16"                                  shellmound.head.obs                                                             
 USGS:333402090240301                     CONTINUOUS  HEAD                           ALL TIMES    "5 24 16"                                  shellmound.head.obs                                                             
 USGS:333402090240301                     CONTINUOUS  HEAD                           ALL TIMES    "6 24 16"                                  shellmound.head.obs                                                             
 USGS:333402090240301                     CONTINUOUS  HEAD                           ALL TIMES    "7 24 16"                                  shellmound.head.obs                                                             
 USGS:333402090240301                     CONTINUOUS  HEAD                           ALL TIMES    "8 24 16"                                  shellmound.head.obs                                                             
 USGS:333402090240301                     CONTINUOUS  HEAD                           ALL TIMES    "9 24 16"                                  shellmound.head.obs                                                             
 USGS:333402090240301                     CONTINUOUS  HEAD                           ALL TIMES    "10 24 16"                                 shellmound.head.obs                                                             
 USGS:333402090240301                     CONTINUOUS  HEAD                           ALL TIMES    "11 24 16"                                 shellmound.head.obs                                                             
 USGS:333402090240301                     CONTINUOUS  HEAD                           ALL TIMES    "12 24 16"                                 shellmound.head.obs                                                             
 USGS:333402090240301                     CONTINUOUS  HEAD                           ALL TIMES    "13 24 16"                                 shellmound.head.obs                                                             
 USGS:333411090281501                     CONTINUOUS  HEAD                           ALL TIMES    "1 24 9"                                   shellmound.head.obs                                                             
 USGS:333411090281501                     CONTINUOUS  HEAD                           ALL TIMES    "2 24 9"                                   shellmound.head.obs                                                             
 USGS:333411090281501                     CONTINUOUS  HEAD                           ALL TIMES    "3 24 9"                                   shellmound.head.obs                                                             
 USGS:333411090281501                     CONTINUOUS  HEAD                           ALL TIMES    "4 24 9"                                   shellmound.head.obs                                                             
 USGS:333411090281501                     CONTINUOUS  HEAD                           ALL TIMES    "5 24 9"                                   shellmound.head.obs                                                             
 USGS:333411090281501                     CONTINUOUS  HEAD                           ALL TIMES    "6 24 9"                                   shellmound.head.obs                                                             
 USGS:333411090281501                     CONTINUOUS  HEAD                           ALL TIMES    "7 24 9"                                   shellmound.head.obs                                                             
 USGS:333411090281501                     CONTINUOUS  HEAD                           ALL TIMES    "8 24 9"                                   shellmound.head.obs                                                             
 USGS:333411090281501                     CONTINUOUS  HEAD                           ALL TIMES    "9 24 9"                                   shellmound.head.obs                                                             
 USGS:333411090281501                     CONTINUOUS  HEAD                           ALL TIMES    "10 24 9"                                  shellmound.head.obs                                                             
 USGS:333411090281501                     CONTINUOUS  HEAD                           ALL TIMES    "11 24 9"                                  shellmound.head.obs                                                             
 USGS:333411090281501                     CONTINUOUS  HEAD                           ALL TIMES    "12 24 9"                                  shellmound.head.obs                                                             
 USGS:333411090281501                     CONTINUOUS  HEAD                           ALL TIMES    "13 24 9"                                  shellmound.head.obs                                                             
 USGS:333427090294201                     CONTINUOUS  HEAD                           ALL TIMES    "1 24 7"                                   shellmound.head.obs                                                             
 USGS:333427090294201                     CONTINUOUS  HEAD                           ALL TIMES    "2 24 7"                                   shellmound.head.obs                                                             
 USGS:333427090294201                     CONTINUOUS  HEAD                           ALL TIMES    "3 24 7"                                   shellmound.head.obs                                                             
 USGS:333427090294201                     CONTINUOUS  HEAD                           ALL TIMES    "4 24 7"                                   shellmound.head.obs                                                             
 USGS:333427090294201                     CONTINUOUS  HEAD                           ALL TIMES    "5 24 7"                                   shellmound.head.obs                                                             
 USGS:333427090294201                     CONTINUOUS  HEAD                           ALL TIMES    "6 24 7"                                   shellmound.head.obs                                                             
 USGS:333427090294201                     CONTINUOUS  HEAD                           ALL TIMES    "7 24 7"                                   shellmound.head.obs                                                             
 USGS:333427090294201                     CONTINUOUS  HEAD                           ALL TIMES    "8 24 7"                                   shellmound.head.obs                                                             
 USGS:333427090294201                     CONTINUOUS  HEAD                           ALL TIMES    "9 24 7"                                   shellmound.head.obs                                                             
 USGS:333427090294201                     CONTINUOUS  HEAD                           ALL TIMES    "10 24 7"                                  shellmound.head.obs                                                             
 USGS:333427090294201                     CONTINUOUS  HEAD                           ALL TIMES    "11 24 7"                                  shellmound.head.obs                                                             
 USGS:333427090294201                     CONTINUOUS  HEAD                           ALL TIMES    "12 24 7"                                  shellmound.head.obs                                                             
 USGS:333427090294201                     CONTINUOUS  HEAD                           ALL TIMES    "13 24 7"                                  shellmound.head.obs                                                             
 USGS:333427090294202                     CONTINUOUS  HEAD                           ALL TIMES    "1 24 7"                                   shellmound.head.obs                                                             
 USGS:333427090294202                     CONTINUOUS  HEAD                           ALL TIMES    "2 24 7"                                   shellmound.head.obs                                                             
 USGS:333427090294202                     CONTINUOUS  HEAD                           ALL TIMES    "3 24 7"                                   shellmound.head.obs                                                             
 USGS:333427090294202                     CONTINUOUS  HEAD                           ALL TIMES    "4 24 7"                                   shellmound.head.obs                                                             
 USGS:333427090294202                     CONTINUOUS  HEAD                           ALL TIMES    "5 24 7"                                   shellmound.head.obs                                                             
 USGS:333427090294202                     CONTINUOUS  HEAD                           ALL TIMES    "6 24 7"                                   shellmound.head.obs                                                             
 USGS:333427090294202                     CONTINUOUS  HEAD                           ALL TIMES    "7 24 7"                                   shellmound.head.obs                                                             
 USGS:333427090294202                     CONTINUOUS  HEAD                           ALL TIMES    "8 24 7"                                   shellmound.head.obs                                                             
 USGS:333427090294202                     CONTINUOUS  HEAD                           ALL TIMES    "9 24 7"                                   shellmound.head.obs                                                             
 USGS:333427090294202                     CONTINUOUS  HEAD                           ALL TIMES    "10 24 7"                                  shellmound.head.obs                                                             
 USGS:333427090294202                     CONTINUOUS  HEAD                           ALL TIMES    "11 24 7"                                  shellmound.head.obs                                                             
 USGS:333427090294202                     CONTINUOUS  HEAD                           ALL TIMES    "12 24 7"                                  shellmound.head.obs                                                             
 USGS:333427090294202                     CONTINUOUS  HEAD                           ALL TIMES    "13 24 7"                                  shellmound.head.obs                                                             
 USGS:333436090253501                     CONTINUOUS  HEAD                           ALL TIMES    "4 23 13"                                  shellmound.head.obs                                                             
 USGS:333436090253501                     CONTINUOUS  HEAD                           ALL TIMES    "5 23 13"                                  shellmound.head.obs                                                             
 USGS:333436090253501                     CONTINUOUS  HEAD                           ALL TIMES    "6 23 13"                                  shellmound.head.obs                                                             
 USGS:333436090253501                     CONTINUOUS  HEAD                           ALL TIMES    "7 23 13"                                  shellmound.head.obs                                                             
 USGS:333436090253501                     CONTINUOUS  HEAD                           ALL TIMES    "8 23 13"                                  shellmound.head.obs                                                             
 USGS:333436090253501                     CONTINUOUS  HEAD                           ALL TIMES    "9 23 13"                                  shellmound.head.obs                                                             
 USGS:333436090253501                     CONTINUOUS  HEAD                           ALL TIMES    "10 23 13"                                 shellmound.head.obs                                                             
 USGS:333436090253501                     CONTINUOUS  HEAD                           ALL TIMES    "11 23 13"                                 shellmound.head.obs                                                             
 USGS:333436090253501                     CONTINUOUS  HEAD                           ALL TIMES    "12 23 13"                                 shellmound.head.obs                                                             
 USGS:333436090253501                     CONTINUOUS  HEAD                           ALL TIMES    "13 23 13"                                 shellmound.head.obs                                                             
 USGS:333508090313601                     CONTINUOUS  HEAD                           ALL TIMES    "1 23 4"                                   shellmound.head.obs                                                             
 USGS:333508090313601                     CONTINUOUS  HEAD                           ALL TIMES    "2 23 4"                                   shellmound.head.obs                                                             
 USGS:333508090313601                     CONTINUOUS  HEAD                           ALL TIMES    "3 23 4"                                   shellmound.head.obs                                                             
 USGS:333508090313601                     CONTINUOUS  HEAD                           ALL TIMES    "4 23 4"                                   shellmound.head.obs                                                             
 USGS:333508090313601                     CONTINUOUS  HEAD                           ALL TIMES    "5 23 4"                                   shellmound.head.obs                                                             
 USGS:333508090313601                     CONTINUOUS  HEAD                           ALL TIMES    "6 23 4"                                   shellmound.head.obs                                                             
 USGS:333508090313601                     CONTINUOUS  HEAD                           ALL TIMES    "7 23 4"                                   shellmound.head.obs                                                             
 USGS:333508090313601                     CONTINUOUS  HEAD                           ALL TIMES    "8 23 4"                                   shellmound.head.obs                                                             
 USGS:333508090313601                     CONTINUOUS  HEAD                           ALL TIMES    "9 23 4"                                   shellmound.head.obs                                                             
 USGS:333508090313601                     CONTINUOUS  HEAD                           ALL TIMES    "10 23 4"                                  shellmound.head.obs                                                             
 USGS:333508090313601                     CONTINUOUS  HEAD                           ALL TIMES    "11 23 4"                                  shellmound.head.obs                                                             
 USGS:333508090313601                     CONTINUOUS  HEAD                           ALL TIMES    "12 23 4"                                  shellmound.head.obs                                                             
 USGS:333508090313601                     CONTINUOUS  HEAD                           ALL TIMES    "13 23 4"                                  shellmound.head.obs                                                             
 USGS:333600090205401                     CONTINUOUS  HEAD                           ALL TIMES    "4 20 20"                                  shellmound.head.obs                                                             
 USGS:333600090205401                     CONTINUOUS  HEAD                           ALL TIMES    "5 20 20"                                  shellmound.head.obs                                                             
 USGS:333600090205401                     CONTINUOUS  HEAD                           ALL TIMES    "6 20 20"                                  shellmound.head.obs                                                             
 USGS:333600090205401                     CONTINUOUS  HEAD                           ALL TIMES    "7 20 20"                                  shellmound.head.obs                                                             
 USGS:333600090205401                     CONTINUOUS  HEAD                           ALL TIMES    "8 20 20"                                  shellmound.head.obs                                                             
 USGS:333600090205401                     CONTINUOUS  HEAD                           ALL TIMES    "9 20 20"                                  shellmound.head.obs                                                             
 USGS:333600090205401                     CONTINUOUS  HEAD                           ALL TIMES    "10 20 20"                                 shellmound.head.obs                                                             
 USGS:333600090205401                     CONTINUOUS  HEAD                           ALL TIMES    "11 20 20"                                 shellmound.head.obs                                                             
 USGS:333600090205401                     CONTINUOUS  HEAD                           ALL TIMES    "12 20 20"                                 shellmound.head.obs                                                             
 USGS:333600090205401                     CONTINUOUS  HEAD                           ALL TIMES    "13 20 20"                                 shellmound.head.obs                                                             
 USGS:333603090164301                     CONTINUOUS  HEAD                           ALL TIMES    "4 20 27"                                  shellmound.head.obs                                                             
 USGS:333603090164301                     CONTINUOUS  HEAD                           ALL TIMES    "5 20 27"                                  shellmound.head.obs                                                             
 USGS:333603090164301                     CONTINUOUS  HEAD                           ALL TIMES    "6 20 27"                                  shellmound.head.obs                                                             
 USGS:333603090164301                     CONTINUOUS  HEAD                           ALL TIMES    "7 20 27"                                  shellmound.head.obs                                                             
 USGS:333603090164301                     CONTINUOUS  HEAD                           ALL TIMES    "8 20 27"                                  shellmound.head.obs                                                             
 USGS:333603090164301                     CONTINUOUS  HEAD                           ALL TIMES    "9 20 27"                                  shellmound.head.obs                                                             
 USGS:333603090164301                     CONTINUOUS  HEAD                           ALL TIMES    "10 20 27"                                 shellmound.head.obs                                                             
 USGS:333603090164301                     CONTINUOUS  HEAD                           ALL TIMES    "11 20 27"                                 shellmound.head.obs                                                             
 USGS:333603090164301                     CONTINUOUS  HEAD                           ALL TIMES    "12 20 27"                                 shellmound.head.obs                                                             
 USGS:333603090164301                     CONTINUOUS  HEAD                           ALL TIMES    "13 20 27"                                 shellmound.head.obs                                                             
 USGS:333606090194801                     CONTINUOUS  HEAD                           ALL TIMES    "4 20 22"                                  shellmound.head.obs                                                             
 USGS:333606090194801                     CONTINUOUS  HEAD                           ALL TIMES    "5 20 22"                                  shellmound.head.obs                                                             
 USGS:333606090194801                     CONTINUOUS  HEAD                           ALL TIMES    "6 20 22"                                  shellmound.head.obs                                                             
 USGS:333606090194801                     CONTINUOUS  HEAD                           ALL TIMES    "7 20 22"                                  shellmound.head.obs                                                             
 USGS:333606090194801                     CONTINUOUS  HEAD                           ALL TIMES    "8 20 22"                                  shellmound.head.obs                                                             
 USGS:333606090194801                     CONTINUOUS  HEAD                           ALL TIMES    "9 20 22"                                  shellmound.head.obs                                                             
 USGS:333606090194801                     CONTINUOUS  HEAD                           ALL TIMES    "10 20 22"                                 shellmound.head.obs                                                             
 USGS:333606090194801                     CONTINUOUS  HEAD                           ALL TIMES    "11 20 22"                                 shellmound.head.obs                                                             
 USGS:333606090194801                     CONTINUOUS  HEAD                           ALL TIMES    "12 20 22"                                 shellmound.head.obs                                                             
 USGS:333606090194801                     CONTINUOUS  HEAD                           ALL TIMES    "13 20 22"                                 shellmound.head.obs                                                             
 USGS:333611090215901                     CONTINUOUS  HEAD                           ALL TIMES    "4 20 18"                                  shellmound.head.obs                                                             
 USGS:333611090215901                     CONTINUOUS  HEAD                           ALL TIMES    "5 20 18"                                  shellmound.head.obs                                                             
 USGS:333611090215901                     CONTINUOUS  HEAD                           ALL TIMES    "6 20 18"                                  shellmound.head.obs                                                             
 USGS:333611090215901                     CONTINUOUS  HEAD                           ALL TIMES    "7 20 18"                                  shellmound.head.obs                                                             
 USGS:333611090215901                     CONTINUOUS  HEAD                           ALL TIMES    "8 20 18"                                  shellmound.head.obs                                                             
 USGS:333611090215901                     CONTINUOUS  HEAD                           ALL TIMES    "9 20 18"                                  shellmound.head.obs                                                             
 USGS:333611090215901                     CONTINUOUS  HEAD                           ALL TIMES    "10 20 18"                                 shellmound.head.obs                                                             
 USGS:333611090215901                     CONTINUOUS  HEAD                           ALL TIMES    "11 20 18"                                 shellmound.head.obs                                                             
 USGS:333611090215901                     CONTINUOUS  HEAD                           ALL TIMES    "12 20 18"                                 shellmound.head.obs                                                             
 USGS:333611090215901                     CONTINUOUS  HEAD                           ALL TIMES    "13 20 18"                                 shellmound.head.obs                                                             
 USGS:333628090313501                     CONTINUOUS  HEAD                           ALL TIMES    "1 20 4"                                   shellmound.head.obs                                                             
[...]
         25          7          1  1.67779498E-03                    1_GWF-(11,5,33)      -4.4548633                     1_GWF-(6,4,32)
         26          8          1  1.08751550E-03                    1_GWF-(11,5,33)      -2.6125637                     1_GWF-(6,4,32)
         27          9          1  7.34160551E-04                    1_GWF-(11,5,33)      -1.4559233                     1_GWF-(6,4,32)
         28         10          1  4.78816269E-04                    1_GWF-(11,5,33)     -0.63461726                     1_GWF-(6,4,32)
         29         11          1  3.04696147E-04                    1_GWF-(11,5,33)     -0.16026451                     1_GWF-(6,4,32)
 --------------------------------------------------------------------------------------------------------------------------------------



end timestep


start timestep kper="19" kstp="2" mode="normal"


 INNER ITERATION SUMMARY
 --------------------------------------------------------------------------------------------------------------------------------------
      TOTAL      OUTER      INNER                                                            MAXIMUM                                   
  ITERATION  ITERATION  ITERATION  MAXIMUM CHANGE      MAXIMUM CHANGE MODEL-(CELLID)        RESIDUAL    MAXIMUM RESIDUAL MODEL-(CELLID)
 --------------------------------------------------------------------------------------------------------------------------------------
          1          1          1     -0.19670063                    1_GWF-(4,24,26)       248.91495                     1_GWF-(6,3,31)
          2          1          2 -4.93241354E-02                    1_GWF-(11,3,31)       123.80603                     1_GWF-(6,4,32)
          3          1          3 -2.48134500E-02                    1_GWF-(10,5,33)       74.101363                     1_GWF-(6,4,32)
          4          1          4 -1.95010475E-02                    1_GWF-(11,5,33)       22.139266                     1_GWF-(6,4,32)
          5          1          5 -1.09676785E-02                    1_GWF-(11,5,33)       10.486490                     1_GWF-(6,4,32)
          6          1          6 -4.24428591E-03                    1_GWF-(11,5,33)      -1.9584088                     1_GWF-(7,4,26)
          7          2          1  3.03275600E-02                    1_GWF-(4,21,23)       24.604531                    1_GWF-(6,11,30)
          8          2          2 -2.72789671E-03                   1_GWF-(13,17,33)       6.0123150                    1_GWF-(6,16,33)
          9          3          1  9.12026381E-03                    1_GWF-(4,21,23)       5.1570613                    1_GWF-(6,17,33)
         10          4          1  1.84403740E-03                    1_GWF-(4,21,23)       2.9435449                    1_GWF-(6,17,33)
         11          5          1 -7.37469338E-04                   1_GWF-(11,17,33)       1.7517704                    1_GWF-(6,16,33)
         12          6          1 -5.11057004E-04                   1_GWF-(11,17,33)      0.98696014                    1_GWF-(6,16,33)
         13          7          1 -2.60565363E-04                   1_GWF-(11,17,33)      0.59343207                    1_GWF-(6,16,33)
         14          8          1 -1.63569740E-04                   1_GWF-(11,17,33)      0.34677999                     1_GWF-(6,4,32)
         15          9          1 -1.02166216E-04                   1_GWF-(11,17,33)      0.21180425                     1_GWF-(6,4,32)
 --------------------------------------------------------------------------------------------------------------------------------------



end timestep


start timestep kper="19" kstp="3" mode="normal"


 INNER ITERATION SUMMARY
 --------------------------------------------------------------------------------------------------------------------------------------
      TOTAL      OUTER      INNER                                                            MAXIMUM                                   
  ITERATION  ITERATION  ITERATION  MAXIMUM CHANGE      MAXIMUM CHANGE MODEL-(CELLID)        RESIDUAL    MAXIMUM RESIDUAL MODEL-(CELLID)
 --------------------------------------------------------------------------------------------------------------------------------------
          1          1          1     -0.18458310                    1_GWF-(4,25,27)       233.65203                     1_GWF-(6,2,32)
          2          1          2 -4.51174522E-02                    1_GWF-(12,17,7)       105.77891                     1_GWF-(6,4,32)
          3          1          3 -1.42039735E-02                    1_GWF-(10,5,33)       37.021437                     1_GWF-(6,4,32)
          4          1          4 -1.41799759E-02                    1_GWF-(1,23,11)       18.088663                     1_GWF-(6,4,32)
          5          1          5 -7.56421345E-03                    1_GWF-(1,23,11)       6.1701448                     1_GWF-(6,6,32)
          6          2          1  3.19190601E-02                    1_GWF-(4,18,19)      -10.084995                     1_GWF-(6,5,28)
          7          2          2  1.64676992E-03                   1_GWF-(13,21,19)       3.1976545                     1_GWF-(6,8,32)
          8          3          1  9.50758740E-03                    1_GWF-(4,18,19)      -3.1610512                     1_GWF-(6,5,28)
          9          4          1  2.06818130E-03                    1_GWF-(4,18,19)       1.6833827                     1_GWF-(6,8,32)
         10          5          1 -5.66204720E-04                    1_GWF-(1,23,11)       1.1122573                     1_GWF-(6,8,32)
         11          6          1 -4.86708161E-04                    1_GWF-(1,23,11)      0.59607360                     1_GWF-(6,8,32)
         12          7          1 -2.27835497E-04                    1_GWF-(1,23,11)     -0.56174505                    1_GWF-(5,19,27)
         13          8          1 -1.08032429E-04                    1_GWF-(1,23,11)      0.22073518                     1_GWF-(6,8,32)
         14          9          1 -8.23601059E-05                    1_GWF-(1,23,11)     -0.18374533                    1_GWF-(5,19,27)
         15         10          1 -4.31002327E-05                    1_GWF-(1,23,11) -9.87500541E-02                    1_GWF-(5,23,22)
 --------------------------------------------------------------------------------------------------------------------------------------



end timestep


start timestep kper="19" kstp="4" mode="normal"


 INNER ITERATION SUMMARY
 --------------------------------------------------------------------------------------------------------------------------------------
      TOTAL      OUTER      INNER                                                            MAXIMUM                                   
  ITERATION  ITERATION  ITERATION  MAXIMUM CHANGE      MAXIMUM CHANGE MODEL-(CELLID)        RESIDUAL    MAXIMUM RESIDUAL MODEL-(CELLID)
 --------------------------------------------------------------------------------------------------------------------------------------
          1          1          1     -0.19202329                    1_GWF-(4,26,27)       159.84979                     1_GWF-(6,2,32)
          2          1          2 -5.26303207E-02                    1_GWF-(12,17,7)       88.445495                     1_GWF-(6,4,32)
          3          1          3 -1.45839351E-02                    1_GWF-(1,23,11)       21.506394                     1_GWF-(6,6,32)
          4          1          4 -1.35079394E-02                    1_GWF-(1,23,11)       12.306127                     1_GWF-(6,4,32)
          5          1          5 -8.10890740E-03                    1_GWF-(1,23,11)       4.3035485                   1_GWF-(11,22,10)
          6          2          1  2.68732803E-02                    1_GWF-(4,23,22)      -9.3735023                   1_GWF-(11,23,10)
          7          2          2  1.89382520E-03                   1_GWF-(11,23,10)       3.1360168                   1_GWF-(11,17,10)
          8          3          1  8.06268377E-03                    1_GWF-(4,23,22)      -2.9541775                   1_GWF-(11,23,10)
          9          4          1  1.89007559E-03                    1_GWF-(4,23,22)       1.5877733                   1_GWF-(11,17,10)
         10          5          1 -4.41004944E-04                   1_GWF-(11,18,10)       1.0728886                   1_GWF-(11,17,10)
         11          6          1 -2.92509384E-04                   1_GWF-(11,18,10)      0.72721189                   1_GWF-(11,17,10)
         12          7          1 -2.03574192E-04                   1_GWF-(11,18,10)      0.48612497                    1_GWF-(11,18,9)
         13          8          1 -1.35978175E-04                   1_GWF-(11,18,10)      0.33094724                    1_GWF-(11,16,9)
         14          9          1 -9.62741238E-05                     1_GWF-(1,11,3)      0.22447981                    1_GWF-(11,16,9)
         15         10          1 -9.41474296E-05                     1_GWF-(1,11,3)     -0.23486680                    1_GWF-(9,21,27)
         16         11          1 -6.42220575E-05                     1_GWF-(1,11,3)     -0.14389869                    1_GWF-(9,21,27)
         17         12          1 -3.50757113E-05                     1_GWF-(1,11,3)  7.73117084E-02                    1_GWF-(8,23,13)
         18         13          1 -1.80022390E-05                     1_GWF-(1,11,3)  3.15260287E-02                    1_GWF-(8,23,13)
 --------------------------------------------------------------------------------------------------------------------------------------



end timestep


start timestep kper="19" kstp="5" mode="normal"


 INNER ITERATION SUMMARY
 --------------------------------------------------------------------------------------------------------------------------------------
      TOTAL      OUTER      INNER                                                            MAXIMUM                                   
  ITERATION  ITERATION  ITERATION  MAXIMUM CHANGE      MAXIMUM CHANGE MODEL-(CELLID)        RESIDUAL    MAXIMUM RESIDUAL MODEL-(CELLID)
 --------------------------------------------------------------------------------------------------------------------------------------
          1          1          1     -0.19627565                    1_GWF-(4,27,27)       133.45491                    1_GWF-(11,20,7)
          2          1          2 -6.88580708E-02                    1_GWF-(12,24,7)       63.405545                     1_GWF-(6,4,32)
          3          1          3 -2.59346203E-02                   1_GWF-(13,26,26)       21.611359                    1_GWF-(11,18,9)
          4          1          4 -1.18378759E-02                   1_GWF-(11,21,10)       10.263133                    1_GWF-(11,18,9)
          5          1          5 -7.96742539E-03                   1_GWF-(11,21,10)       4.8513015                    1_GWF-(11,18,9)
          6          2          1  1.33512728E-02                    1_GWF-(4,18,22)      -5.8714850                   1_GWF-(11,25,10)
          7          2          2 -1.56532662E-03                    1_GWF-(1,21,11)       3.0597095                    1_GWF-(11,18,9)
          8          3          1  4.01979868E-03                    1_GWF-(4,18,22)       2.4614256                    1_GWF-(11,18,9)
          9          4          1  9.57284244E-04                    1_GWF-(4,18,22)       1.8036185                    1_GWF-(11,18,9)
         10          5          1 -7.89586319E-04                   1_GWF-(11,19,10)       1.0856168                    1_GWF-(11,18,9)
         11          6          1 -5.12517807E-04                   1_GWF-(11,19,10)      0.56944015                    1_GWF-(11,18,9)
         12          7          1 -2.92843535E-04                   1_GWF-(11,19,10)     -0.41778344                    1_GWF-(5,20,27)
         13          8          1 -1.31038200E-04                   1_GWF-(11,20,10)      0.16117191                    1_GWF-(11,18,9)
         14          9          1 -8.27707694E-05                   1_GWF-(11,20,10)      0.12354819                     1_GWF-(4,3,29)
         15         10          1 -5.42915604E-05                   1_GWF-(11,20,10)  7.32463452E-02                     1_GWF-(4,3,29)
         16         11          1 -2.21978923E-05                   1_GWF-(11,20,10)  4.31531280E-02                     1_GWF-(2,22,3)
 --------------------------------------------------------------------------------------------------------------------------------------


 UBDSV1 SAVING           STO-SS ON UNIT   1113 AT TIME STEP      5, STRESS PERIOD     19
 UBDSV1 SAVING           STO-SY ON UNIT   1113 AT TIME STEP      5, STRESS PERIOD     19
 UBDSV1 SAVING     FLOW-JA-FACE ON UNIT   1113 AT TIME STEP      5, STRESS PERIOD     19
 UBDSV06 SAVING              WEL IN MODEL SHELLMOUND       PACKAGE SHELLMOUND      CONNECTED TO MODEL SHELLMOUND       PACKAGE WEL_0            ON UNIT   1113 AT TIME STEP      5, STRESS PERIOD     19
 UBDSV06 SAVING              RCH IN MODEL SHELLMOUND       PACKAGE SHELLMOUND      CONNECTED TO MODEL SHELLMOUND       PACKAGE RCHA             ON UNIT   1113 AT TIME STEP      5, STRESS PERIOD     19
 UBDSV06 SAVING              SFR IN MODEL SHELLMOUND       PACKAGE SHELLMOUND      CONNECTED TO MODEL SHELLMOUND       PACKAGE SFR_0            ON UNIT   1113 AT TIME STEP      5, STRESS PERIOD     19
 UBDSV06 SAVING     FLOW-JA-FACE IN MODEL SHELLMOUND       PACKAGE SFR_0           CONNECTED TO MODEL SHELLMOUND       PACKAGE SFR_0            ON UNIT   1042 AT TIME STEP      5, STRESS PERIOD     19
 UBDSV06 SAVING              GWF IN MODEL SHELLMOUND       PACKAGE SFR_0           CONNECTED TO MODEL SHELLMOUND       PACKAGE SHELLMOUND       ON UNIT   1042 AT TIME STEP      5, STRESS PERIOD     19
 UBDSV06 SAVING         RAINFALL IN MODEL SHELLMOUND       PACKAGE SFR_0           CONNECTED TO MODEL SHELLMOUND       PACKAGE SFR_0            ON UNIT   1042 AT TIME STEP      5, STRESS PERIOD     19
 UBDSV06 SAVING      EVAPORATION IN MODEL SHELLMOUND       PACKAGE SFR_0           CONNECTED TO MODEL SHELLMOUND       PACKAGE SFR_0            ON UNIT   1042 AT TIME STEP      5, STRESS PERIOD     19
 UBDSV06 SAVING           RUNOFF IN MODEL SHELLMOUND       PACKAGE SFR_0           CONNECTED TO MODEL SHELLMOUND       PACKAGE SFR_0            ON UNIT   1042 AT TIME STEP      5, STRESS PERIOD     19
 UBDSV06 SAVING       EXT-INFLOW IN MODEL SHELLMOUND       PACKAGE SFR_0           CONNECTED TO MODEL SHELLMOUND       PACKAGE SFR_0            ON UNIT   1042 AT TIME STEP      5, STRESS PERIOD     19
 UBDSV06 SAVING      EXT-OUTFLOW IN MODEL SHELLMOUND       PACKAGE SFR_0           CONNECTED TO MODEL SHELLMOUND       PACKAGE SFR_0            ON UNIT   1042 AT TIME STEP      5, STRESS PERIOD     19
 UBDSV06 SAVING          STORAGE IN MODEL SHELLMOUND       PACKAGE SFR_0           CONNECTED TO MODEL SHELLMOUND       PACKAGE SFR_0            ON UNIT   1042 AT TIME STEP      5, STRESS PERIOD     19
 UBDSV06 SAVING        AUXILIARY IN MODEL SHELLMOUND       PACKAGE SFR_0           CONNECTED TO MODEL SHELLMOUND       PACKAGE SFR_0            ON UNIT   1042 AT TIME STEP      5, STRESS PERIOD     19

 HEAD WILL BE SAVED ON UNIT 1114 AT END OF TIME STEP    5, STRESS PERIOD   19


  SFR_0 BUDGET FOR ENTIRE MODEL AT END OF TIME STEP    5, STRESS PERIOD  19
  ------------------------------------------------------------------------------

     CUMULATIVE SFR_0      L**3       RATES FOR THIS TIME STEP      L**3/T
     ------------------                 ------------------------

           IN:                                      IN:
           ---                                      ---
                 GWF =  7377672637.5880                   GWF =     1191583.3619
            RAINFALL =           0.0000              RAINFALL =           0.0000
         EVAPORATION =           0.0000           EVAPORATION =           0.0000
              RUNOFF =  2425243581.6915                RUNOFF =      628815.9379
          EXT-INFLOW =337215569464.0445            EXT-INFLOW =    55812392.2667
         EXT-OUTFLOW =           0.0000           EXT-OUTFLOW =           0.0000
             STORAGE =           0.0000               STORAGE =           0.0000
           AUXILIARY =           0.0000             AUXILIARY =           0.0000

            TOTAL IN =347018485683.3240              TOTAL IN =    57632791.5665

          OUT:                                     OUT:
          ----                                     ----
                 GWF =  7770923593.2702                   GWF =     1328324.4914
            RAINFALL =           0.0000              RAINFALL =           0.0000
         EVAPORATION =           0.0000           EVAPORATION =           0.0000
              RUNOFF =           0.0000                RUNOFF =           0.0000
          EXT-INFLOW =           0.0000            EXT-INFLOW =           0.0000
         EXT-OUTFLOW =339247562090.0538           EXT-OUTFLOW =    56304467.0751
             STORAGE =           0.0000               STORAGE =           0.0000
           AUXILIARY =           0.0000             AUXILIARY =           0.0000

           TOTAL OUT =347018485683.3240             TOTAL OUT =    57632791.5665

            IN - OUT =           0.0000              IN - OUT =       2.2352E-08

 PERCENT DISCREPANCY =           0.00     PERCENT DISCREPANCY =           0.00



  VOLUME BUDGET FOR ENTIRE MODEL AT END OF TIME STEP    5, STRESS PERIOD  19
  ---------------------------------------------------------------------------------------------------

     CUMULATIVE VOLUME      L**3       RATES FOR THIS TIME STEP      L**3/T          PACKAGE NAME    
     ------------------                 ------------------------                     ----------------

           IN:                                      IN:
           ---                                      ---
              STO-SS =     4890669.0513                STO-SS =         489.1911     STORAGE         
              STO-SY =   871009942.5938                STO-SY =      129413.6807     STORAGE         
                 WEL =           0.0000                   WEL =           0.0000     WEL_0           
                 RCH =  2286055826.4077                   RCH =      259300.2946     RCHA            
                 SFR =  7770919753.8263                   SFR =     1328325.6377     SFR_0           

            TOTAL IN = 10932876191.8791              TOTAL IN =     1717528.8040

          OUT:                                     OUT:
          ----                                     ----
              STO-SS =     4696794.8564                STO-SS =           0.0000     STORAGE         
              STO-SY =   816538760.2238                STO-SY =           0.0000     STORAGE         
                 WEL =  2733968272.2766                   WEL =      525951.2149     WEL_0           
                 RCH =           0.0000                   RCH =           0.0000     RCHA            
                 SFR =  7377674922.3793                   SFR =     1191582.5056     SFR_0           

           TOTAL OUT = 10932878749.7361             TOTAL OUT =     1717533.7205

            IN - OUT =       -2557.8570              IN - OUT =          -4.9165

 PERCENT DISCREPANCY =          -0.00     PERCENT DISCREPANCY =          -0.00




         TIME SUMMARY AT END OF TIME STEP    5 IN STRESS PERIOD   19
                    SECONDS     MINUTES      HOURS       DAYS        YEARS
                    -----------------------------------------------------------
   TIME STEP LENGTH 6.06970E+06 1.01162E+05  1686.0      70.251     0.19234    
 STRESS PERIOD TIME 1.58112E+07 2.63520E+05  4392.0      183.00     0.50103    
         TOTAL TIME 5.52355E+08 9.20592E+06 1.53432E+05  6393.0      17.503    


end timestep

