                                  MODFLOW-NWT-SWR1 
      U.S. GEOLOGICAL SURVEY MODULAR FINITE-DIFFERENCE GROUNDWATER-FLOW MODEL
                             VERSION 1.1.4 4/01/2018
                    BASED ON MODFLOW-2005 VERSION 1.12.00 02/03/2017

 LIST FILE: lpr_inset.list
                         UNIT    2

 OPENING lpr_inset.dis
 FILE TYPE:DIS   UNIT   11   STATUS:OLD    
 FORMAT:FORMATTED              ACCESS:SEQUENTIAL          

 OPENING lpr_inset.bas
 FILE TYPE:BAS6   UNIT   13   STATUS:OLD    
 FORMAT:FORMATTED              ACCESS:SEQUENTIAL          

 OPENING lpr_inset.upw
 FILE TYPE:UPW   UNIT   31   STATUS:OLD    
 FORMAT:FORMATTED              ACCESS:SEQUENTIAL          

 OPENING lpr_inset.rch
 FILE TYPE:RCH   UNIT   19   STATUS:OLD    
 FORMAT:FORMATTED              ACCESS:SEQUENTIAL          

 OPENING lpr_inset.oc
 FILE TYPE:OC   UNIT   14   STATUS:OLD    
 FORMAT:FORMATTED              ACCESS:SEQUENTIAL          

 OPENING lpr_inset.sfr
 FILE TYPE:SFR   UNIT   17   STATUS:OLD    
 FORMAT:FORMATTED              ACCESS:SEQUENTIAL          

 OPENING lpr_inset.gage
 FILE TYPE:GAGE   UNIT  120   STATUS:OLD    
 FORMAT:FORMATTED              ACCESS:SEQUENTIAL          

 OPENING lpr_inset.wel
 FILE TYPE:WEL   UNIT   20   STATUS:OLD    
 FORMAT:FORMATTED              ACCESS:SEQUENTIAL          

 OPENING lpr_inset.hyd
 FILE TYPE:HYD   UNIT   36   STATUS:OLD    
 FORMAT:FORMATTED              ACCESS:SEQUENTIAL          

 OPENING lpr_inset.nwt
 FILE TYPE:NWT   UNIT   32   STATUS:OLD    
 FORMAT:FORMATTED              ACCESS:SEQUENTIAL          

 OPENING lpr_inset.chd
 FILE TYPE:CHD   UNIT   24   STATUS:OLD    
 FORMAT:FORMATTED              ACCESS:SEQUENTIAL          

 OPENING lpr_inset.cbc
 FILE TYPE:DATA(BINARY)   UNIT   53   STATUS:REPLACE
 FORMAT:UNFORMATTED            ACCESS:STREAM              

 OPENING lpr_inset.hds
 FILE TYPE:DATA(BINARY)   UNIT   51   STATUS:REPLACE
 FORMAT:UNFORMATTED            ACCESS:STREAM              

 OPENING lpr_inset.sfr.out
 FILE TYPE:DATA   UNIT  223   STATUS:UNKNOWN
 FORMAT:FORMATTED              ACCESS:SEQUENTIAL          

 OPENING lpr_inset.hyd.bin
 FILE TYPE:DATA(BINARY)   UNIT  536   STATUS:REPLACE
 FORMAT:UNFORMATTED            ACCESS:STREAM              

 OPENING 5400625lpr.ggo
 FILE TYPE:DATA   UNIT  250   STATUS:UNKNOWN
 FORMAT:FORMATTED              ACCESS:SEQUENTIAL          

 OPENING lpr_hoover.ggo
 FILE TYPE:DATA   UNIT  251   STATUS:UNKNOWN
 FORMAT:FORMATTED              ACCESS:SEQUENTIAL          

 BAS -- BASIC PACKAGE, VERSION 1.1.4, 4/01/2018 INPUT READ FROM UNIT   13

 MODFLOW was compiled using mixed precision
 Precision of REAL variables:           6
 Precision of DOUBLE PRECISION variables:          15

 DISCRETIZATION INPUT DATA READ FROM UNIT   11
 # DIS package for  MODFLOW-NWT, generated by Flopy.
    3 LAYERS       137 ROWS       171 COLUMNS
   12 STRESS PERIOD(S) IN SIMULATION
 MODEL TIME UNIT IS DAYS
 MODEL LENGTH UNIT IS FEET
  Confining bed flag for each layer:
   0   0   0

 OPENING FILE ON UNIT   99:
 external/delr.ref                                                                                                                                                                                       



                               DELR
 READING ON UNIT   99 WITH FORMAT: (171E15.6)          

 OPENING FILE ON UNIT   99:
 external/delc.ref                                                                                                                                                                                       



                               DELC
 READING ON UNIT   99 WITH FORMAT: (137E15.6)          

 OPENING FILE ON UNIT   99:
 external/top.dat                                                                                                                                                                                        



           TOP ELEVATION OF LAYER 1
 READING ON UNIT   99 WITH FORMAT: (FREE)              

 OPENING FILE ON UNIT   99:
 external/botm0.dat                                                                                                                                                                                      



             MODEL LAYER BOTTOM EL. FOR LAYER   1
 READING ON UNIT   99 WITH FORMAT: (FREE)              

 OPENING FILE ON UNIT   99:
 external/botm1.dat                                                                                                                                                                                      



             MODEL LAYER BOTTOM EL. FOR LAYER   2
 READING ON UNIT   99 WITH FORMAT: (FREE)              

 OPENING FILE ON UNIT   99:
 external/botm2.dat                                                                                                                                                                                      



             MODEL LAYER BOTTOM EL. FOR LAYER   3
 READING ON UNIT   99 WITH FORMAT: (FREE)              


 STRESS PERIOD     LENGTH       TIME STEPS     MULTIPLIER FOR DELT    SS FLAG
 ----------------------------------------------------------------------------
        1         31.00000          5                    1.200         TR
        2         28.00000          5                    1.200         TR
        3         31.00000          5                    1.200         TR
        4         30.00000          5                    1.200         TR
        5         31.00000          5                    1.200         TR
        6         30.00000          5                    1.200         TR
        7         31.00000          5                    1.200         TR
        8         31.00000          5                    1.200         TR
        9         30.00000          5                    1.200         TR
       10         31.00000          5                    1.200         TR
       11         30.00000          5                    1.200         TR
       12         31.00000          5                    1.200         TR

 TRANSIENT SIMULATION




 # BAS6 package for  MODFLOW-NWT, generated by Flopy.                            
 THE FREE FORMAT OPTION HAS BEEN SELECTED

 OPENING FILE ON UNIT   99:
 external/ibound0.dat                                                                                                                                                                                    



                     BOUNDARY ARRAY FOR LAYER   1
 READING ON UNIT   99 WITH FORMAT: (FREE)              

 OPENING FILE ON UNIT   99:
 external/ibound1.dat                                                                                                                                                                                    



                     BOUNDARY ARRAY FOR LAYER   2
 READING ON UNIT   99 WITH FORMAT: (FREE)              

 OPENING FILE ON UNIT   99:
 external/ibound2.dat                                                                                                                                                                                    



                     BOUNDARY ARRAY FOR LAYER   3
 READING ON UNIT   99 WITH FORMAT: (FREE)              

 AQUIFER HEAD WILL BE SET TO  -9999.0     AT ALL NO-FLOW NODES (IBOUND=0).

 OPENING FILE ON UNIT   99:
 external/strt0.dat                                                                                                                                                                                      



                       INITIAL HEAD FOR LAYER   1
 READING ON UNIT   99 WITH FORMAT: (FREE)              

 OPENING FILE ON UNIT   99:
 external/strt1.dat                                                                                                                                                                                      



                       INITIAL HEAD FOR LAYER   2
 READING ON UNIT   99 WITH FORMAT: (FREE)              

 OPENING FILE ON UNIT   99:
 external/strt2.dat                                                                                                                                                                                      



                       INITIAL HEAD FOR LAYER   3
 READING ON UNIT   99 WITH FORMAT: (FREE)              
 # OC package for  MODFLOW-NWT, generated by Flopy.

 OUTPUT CONTROL IS SPECIFIED ONLY AT TIME STEPS FOR WHICH OUTPUT IS DESIRED
 COMPACT CELL-BY-CELL BUDGET FILES WILL BE WRITTEN
 AUXILIARY DATA WILL BE SAVED IN CELL-BY-CELL BUDGET FILES
 HEAD PRINT FORMAT CODE IS   0    DRAWDOWN PRINT FORMAT CODE IS   0
 HEADS WILL BE SAVED ON UNIT   51    DRAWDOWNS WILL BE SAVED ON UNIT    0
 # NWT package for  MODFLOW-NWT, generated by Flopy.

 NWT1 -- Newton Solver, VERSION 1.1.4, 4/01/2018
         INPUT READ FROM UNIT 32

 SPECIFIED OPTION:
 SOLVER INPUT VALUES ARE SPECIFIED BY USER
 ***XMD linear solver will be used***

   CONVERGENCE CRITERION OF   0.100000E+00 FOR HEAD SOLUTION
   AND A TOLERANCE OF   0.600000E+04 FOR FLOW SOLUTION AND 
   A MAXIMUM OF  1000 OUTER ITERATIONS. 


   D-B-D REDUCTION FACTOR OF    0.900000E+00 AND 
   A D-B-D INCREASE FACTOR OF    0.100000E-04 AND 
   A D-B-D RELAXATION OF    0.000000E+00 AND 
   A MOMENTUM FACTOR OF    0.000000E+00 .


 ***BACKTRACKING IS INACTIVE***
 XMD -- LINEAR SOLUTION BY XMD PACKAGE VERSION 1.30
     BY MOTOMU IBARAKI, OHIO STATE UNIVERSITY, COLOMBUS, OH
                 INPUT READ FROM UNIT 32
 ACCELERATION METHOD                    (IACL) =         2
 NODE ORDERING FLAG                   (NORDER) =         0
 LEVEL OF FILL                         (LEVEL) =         7
 MAXIMUM NUMBER OF ORTHOGONALIZATIONS  (NORTH) =         7
 INDEX FOR USING REDUCED SYSTEM      (IREDSYS) =         0
 RESID. REDUCTION CONVERGE CRITERION  (RRCTOL) =  0.000000E+00
 INDEX FOR USING DROP TOLERANCE     (IDROPTOL) =         1
 DROP TOLERANCE VALUE                  (EPSRN) =  0.100000E-01
 CONVERGENCE CRITERIA OF           (HCLOSEXMD) =  0.100000E-03
 MAX. NUMBER OF LINEAR ITERATIONS  (MXITERXMD) =       100


 UPW1 -- UPSTREAM WEIGHTING FLOW PACKAGE, VERSION 1.1.4, 4/01/2018
         INPUT READ FROM UNIT 31

 # UPW package for  MODFLOW-NWT, generated by Flopy.
 CELL-BY-CELL FLOWS WILL BE SAVED ON UNIT   53
 No named parameters

   LAYER FLAGS:
 LAYER       LAYTYP          LAYAVG    CHANI           LAYVKA           LAYWET
 ---------------------------------------------------------------------------
    1             1             0     1.000E+00             0             0
    2             1             0     1.000E+00             0             0
    3             1             0     1.000E+00             0             0

   INTERPRETATION OF LAYER FLAGS:
                        INTERBLOCK     HORIZONTAL    DATA IN
         LAYER TYPE   TRANSMISSIVITY   ANISOTROPY   ARRAY VKA   WETTABILITY
 LAYER   (LAYTYP)        (LAYAVG)      (CHANI)     (LAYVKA)       (LAYWET)
 ---------------------------------------------------------------------------
    1   CONVERTIBLE      HARMONIC     1.000E+00    VERTICAL K  NON-WETTABLE
    2   CONVERTIBLE      HARMONIC     1.000E+00    VERTICAL K  NON-WETTABLE
    3   CONVERTIBLE      HARMONIC     1.000E+00    VERTICAL K  NON-WETTABLE

 OPENING FILE ON UNIT   99:
 external/hk0.dat                                                                                                                                                                                        



              HYD. COND. ALONG ROWS FOR LAYER   1
 READING ON UNIT   99 WITH FORMAT: (FREE)              

 OPENING FILE ON UNIT   99:
 external/vka0.dat                                                                                                                                                                                       



                VERTICAL HYD. COND. FOR LAYER   1
 READING ON UNIT   99 WITH FORMAT: (FREE)              

 OPENING FILE ON UNIT   99:
 external/ss0.dat                                                                                                                                                                                        



                   SPECIFIC STORAGE FOR LAYER   1
 READING ON UNIT   99 WITH FORMAT: (FREE)              

 OPENING FILE ON UNIT   99:
 external/sy0.dat                                                                                                                                                                                        



                     SPECIFIC YIELD FOR LAYER   1
 READING ON UNIT   99 WITH FORMAT: (FREE)              

 OPENING FILE ON UNIT   99:
 external/hk1.dat                                                                                                                                                                                        



              HYD. COND. ALONG ROWS FOR LAYER   2
 READING ON UNIT   99 WITH FORMAT: (FREE)              

 OPENING FILE ON UNIT   99:
 external/vka1.dat                                                                                                                                                                                       



                VERTICAL HYD. COND. FOR LAYER   2
 READING ON UNIT   99 WITH FORMAT: (FREE)              

 OPENING FILE ON UNIT   99:
 external/ss1.dat                                                                                                                                                                                        



                   SPECIFIC STORAGE FOR LAYER   2
 READING ON UNIT   99 WITH FORMAT: (FREE)              

 OPENING FILE ON UNIT   99:
 external/sy1.dat                                                                                                                                                                                        



                     SPECIFIC YIELD FOR LAYER   2
 READING ON UNIT   99 WITH FORMAT: (FREE)              

 OPENING FILE ON UNIT   99:
 external/hk2.dat                                                                                                                                                                                        



              HYD. COND. ALONG ROWS FOR LAYER   3
 READING ON UNIT   99 WITH FORMAT: (FREE)              

 OPENING FILE ON UNIT   99:
 external/vka2.dat                                                                                                                                                                                       



                VERTICAL HYD. COND. FOR LAYER   3
 READING ON UNIT   99 WITH FORMAT: (FREE)              

 OPENING FILE ON UNIT   99:
 external/ss2.dat                                                                                                                                                                                        



                   SPECIFIC STORAGE FOR LAYER   3
 READING ON UNIT   99 WITH FORMAT: (FREE)              

 OPENING FILE ON UNIT   99:
 external/sy2.dat                                                                                                                                                                                        



                     SPECIFIC YIELD FOR LAYER   3
 READING ON UNIT   99 WITH FORMAT: (FREE)              

 WEL -- WELL PACKAGE FOR NWT VERSION 1.1.4,  4/01/2018 INPUT READ FROM UNIT   20
 # WEL package for  MODFLOW-NWT, generated by Flopy.
 No named parameters
 MAXIMUM OF     34 ACTIVE WELLS AT ONE TIME
 CELL-BY-CELL FLOWS WILL BE SAVED ON UNIT   53
 No named parameters
  PHIRAMP WILL BE SET TO A DEFAULT VALUE OF 1.0E-5
  WELLS WITH REDUCED PUMPING WILL BE REPORTED TO THE MAIN LISTING FILE


     0 Well parameters

 RCH -- RECHARGE PACKAGE, VERSION 7, 5/2/2005 INPUT READ FROM UNIT   19
 # RCH package for  MODFLOW-NWT, generated by Flopy.
 No named parameters
 OPTION 3 -- RECHARGE TO HIGHEST ACTIVE NODE IN EACH VERTICAL COLUMN
 CELL-BY-CELL FLOWS WILL BE SAVED ON UNIT   53


     0 Recharge parameters

 CHD -- TIME-VARIANT SPECIFIED-HEAD OPTION, VERSION 7, 5/2/2005
 INPUT READ FROM UNIT   24
 # CHD package for  MODFLOW-NWT, generated by Flopy.
 No named parameters
 MAXIMUM OF   1836 TIME-VARIANT SPECIFIED-HEAD CELLS AT ONE TIME


     0 TIME-VARIANT SPECIFIED-HEAD PARAMETERS

 SFR7 -- STREAMFLOW ROUTING PACKAGE, VERSION 1.0.5, 2012-04-05
         INPUT READ FROM UNIT  17
 # SFR package for  MODFLOW-NWT, generated by Flopy.
 No named parameters


 NUMBER OF STREAM REACHES IS  353

 NUMBER OF STREAM SEGMENTS IS   14

 NUMBER OF STREAM PARAMETERS IS    0

 NUMBER OF STREAM SEGMENTS DEFINED USING PARAMETERS IS              0

 MAXIMUM ERROR FOR STREAM LEAKAGE RATES IS  1.00E-04

 CONSTANT FOR MANNINGS EQUATION IS  1.2839E+05





 USING DATA INPUT MODIFIED FROM ORIGINAL SFR PROGRAM FOR FARM PACKAGE

 FLOW TO AND FROM GROUND WATER FOR EACH STREAM REACH WILL BE SAVED ON UNIT   53
 STREAM OUTPUT WILL BE WRITTEN TO FILE ON UNIT  223


   STREAM NETWORK DESCRIPTION: 

   LAYER    ROW    COL   SEGMENT   REACH     LENGTH     STREAMBED     STREAMBED   STREAMBED     STREAMBED
                          NUMBER   NUMBER    IN CELL    TOP ELEV.       SLOPE     THICKNESS   HYDR. CONDUCT.        
   ---------------------------------------------------------------------------------------------------------
       1     64    119       1        1    8.6922E+01   1.0871E+03   3.8900E-04   9.0000E-01   2.4940E+00
       1     64    118       1        2    1.1188E+01   1.0871E+03   3.4430E-03   9.0000E-01   2.4940E+00
       1     63    118       1        3    1.4195E+02   1.0870E+03   4.2900E-04   9.0000E-01   2.4940E+00
       1     63    117       1        4    1.0038E+02   1.0870E+03   5.0300E-04   9.0000E-01   2.4940E+00
       1     63    116       1        5    1.0027E+02   1.0869E+03   4.9300E-04   9.0000E-01   2.4940E+00
       1     63    115       1        6    9.6171E+01   1.0869E+03   2.6200E-04   9.0000E-01   2.4940E+00
       1     62    115       1        7    4.1023E+00   1.0868E+03   6.4010E-03   9.0000E-01   2.4940E+00
       1     62    114       1        8    1.0027E+02   1.0868E+03   5.0300E-04   9.0000E-01   2.4940E+00
       1     62    113       1        9    1.0027E+02   1.0868E+03   5.0300E-04   9.0000E-01   2.4940E+00
       1     62    112       1       10    1.0027E+02   1.0867E+03   5.0300E-04   9.0000E-01   2.4940E+00
       1     62    111       1       11    1.0027E+02   1.0867E+03   5.0300E-04   9.0000E-01   2.4940E+00
       1     62    110       1       12    1.0036E+02   1.0866E+03   5.0300E-04   9.0000E-01   2.4940E+00
       1     62    109       1       13    1.0038E+02   1.0866E+03   5.0300E-04   9.0000E-01   2.4940E+00
       1     62    108       1       14    1.0038E+02   1.0865E+03   5.0300E-04   9.0000E-01   2.4940E+00
       1     62    107       1       15    1.0038E+02   1.0865E+03   5.0300E-04   9.0000E-01   2.4940E+00
       1     62    106       1       16    1.0038E+02   1.0864E+03   5.0300E-04   9.0000E-01   2.4940E+00
       1     62    105       1       17    1.0031E+02   1.0864E+03   5.0300E-04   9.0000E-01   2.4940E+00
       1     62    104       1       18    1.0030E+02   1.0863E+03   4.0400E-04   9.0000E-01   2.4940E+00
       1     62    103       1       19    1.0000E+00   1.0863E+03   6.6700E-04   9.0000E-01   0.0000E+00
       1     48    114       2        1    9.6328E+00   1.0910E+03   3.0800E-04   9.0000E-01   2.4940E+00
       1     49    114       2        2    1.0000E+02   1.0910E+03   1.0000E-04   9.0000E-01   2.4940E+00
       1     50    114       2        3    1.0000E+02   1.0910E+03   1.0000E-04   9.0000E-01   2.4940E+00
       1     51    114       2        4    1.0000E+02   1.0910E+03   1.0000E-04   9.0000E-01   2.4940E+00
       1     52    114       2        5    1.0000E+02   1.0910E+03   1.0000E-04   9.0000E-01   2.4940E+00
       1     53    114       2        6    1.0000E+02   1.0910E+03   1.0000E-04   9.0000E-01   2.4940E+00
       1     54    114       2        7    1.0000E+02   1.0910E+03   3.7700E-03   9.0000E-01   2.4940E+00
       1     55    114       2        8    1.0000E+02   1.0906E+03   2.3320E-03   9.0000E-01   2.4940E+00
       1     56    114       2        9    1.0000E+00   1.0904E+03   9.8330E-03   9.0000E-01   0.0000E+00
       1     42    102       3        1    4.4778E+01   1.0890E+03   3.9940E-03   9.0000E-01   2.4940E+00
       1     43    102       3        2    1.0002E+02   1.0888E+03   2.4700E-03   9.0000E-01   2.4940E+00
       1     44    102       3        3    1.0002E+02   1.0886E+03   2.4700E-03   9.0000E-01   2.4940E+00
       1     45    102       3        4    1.0002E+02   1.0883E+03   2.4700E-03   9.0000E-01   2.4940E+00
       1     46    102       3        5    1.0002E+02   1.0881E+03   9.7100E-04   9.0000E-01   2.4940E+00
       1     47    102       3        6    1.0002E+02   1.0880E+03   9.7100E-04   9.0000E-01   2.4940E+00
       1     48    102       3        7    1.0002E+02   1.0879E+03   9.7100E-04   9.0000E-01   2.4940E+00
       1     49    102       3        8    1.0002E+02   1.0878E+03   9.7100E-04   9.0000E-01   2.4940E+00
       1     50    102       3        9    1.0002E+02   1.0877E+03   8.9900E-04   9.0000E-01   2.4940E+00
       1     51    102       3       10    8.5126E+01   1.0876E+03   5.7100E-04   9.0000E-01   2.4940E+00
       1     51    103       3       11    1.4896E+01   1.0876E+03   3.7460E-03   9.0000E-01   2.4940E+00
       1     52    103       3       12    1.0002E+02   1.0875E+03   9.7100E-04   9.0000E-01   2.4940E+00
       1     53    103       3       13    1.0002E+02   1.0874E+03   4.3210E-03   9.0000E-01   2.4940E+00
       1     54    103       3       14    1.0002E+02   1.0870E+03   3.0770E-03   9.0000E-01   2.4940E+00
       1     55    103       3       15    1.0000E+00   1.0867E+03   7.2510E-03   9.0000E-01   0.0000E+00
       1     81    103       4        1    4.5590E+01   1.0870E+03   4.9790E-03   9.0000E-01   2.4940E+00
       1     80    103       4        2    1.0006E+02   1.0868E+03   3.1170E-03   9.0000E-01   2.4940E+00
       1     79    103       4        3    1.0006E+02   1.0865E+03   3.1170E-03   9.0000E-01   2.4940E+00
       1     78    103       4        4    1.0006E+02   1.0861E+03   3.1170E-03   9.0000E-01   2.4940E+00
       1     77    103       4        5    1.0006E+02   1.0858E+03   3.1170E-03   9.0000E-01   2.4940E+00
       1     76    103       4        6    1.0006E+02   1.0855E+03   3.1170E-03   9.0000E-01   2.4940E+00
       1     75    103       4        7    1.0006E+02   1.0852E+03   3.1170E-03   9.0000E-01   2.4940E+00
       1     74    103       4        8    1.0006E+02   1.0849E+03   3.1170E-03   9.0000E-01   2.4940E+00
       1     73    103       4        9    1.0006E+02   1.0846E+03   1.0000E-04   9.0000E-01   2.4940E+00
       1     72    103       4       10    1.0000E+00   1.0846E+03   1.0000E-04   9.0000E-01   0.0000E+00
       1     82     87       5        1    6.7689E+01   1.0890E+03   4.1850E-03   9.0000E-01   2.4940E+00
       1     81     87       5        2    1.0000E+02   1.0887E+03   3.3790E-03   9.0000E-01   2.4940E+00
       1     80     87       5        3    1.0000E+02   1.0884E+03   3.3790E-03   9.0000E-01   2.4940E+00
       1     79     87       5        4    1.0000E+02   1.0880E+03   3.3790E-03   9.0000E-01   2.4940E+00
       1     78     87       5        5    1.0000E+02   1.0877E+03   3.3790E-03   9.0000E-01   2.4940E+00
       1     77     87       5        6    1.0000E+02   1.0874E+03   3.3790E-03   9.0000E-01   2.4940E+00
       1     76     87       5        7    1.0000E+02   1.0870E+03   3.3790E-03   9.0000E-01   2.4940E+00
       1     75     87       5        8    1.0000E+02   1.0867E+03   3.3790E-03   9.0000E-01   2.4940E+00
       1     74     87       5        9    1.0000E+02   1.0864E+03   3.3790E-03   9.0000E-01   2.4940E+00
       1     73     87       5       10    1.0000E+02   1.0860E+03   3.3790E-03   9.0000E-01   2.4940E+00
       1     72     87       5       11    1.0000E+02   1.0857E+03   3.3790E-03   9.0000E-01   2.4940E+00
       1     71     87       5       12    1.0000E+02   1.0853E+03   3.3790E-03   9.0000E-01   2.4940E+00
       1     70     87       5       13    1.0000E+02   1.0850E+03   3.3790E-03   9.0000E-01   2.4940E+00
       1     62    103       6        1    1.2514E+02   1.0873E+03   2.7150E-03   9.0000E-01   2.4940E+00
       1     63    103       6        2    1.0005E+02   1.0870E+03   2.7150E-03   9.0000E-01   2.4940E+00
       1     64    103       6        3    1.0005E+02   1.0867E+03   2.7150E-03   9.0000E-01   2.4940E+00
       1     65    103       6        4    1.0005E+02   1.0865E+03   2.7150E-03   9.0000E-01   2.4940E+00
       1     66    103       6        5    1.0005E+02   1.0862E+03   2.7150E-03   9.0000E-01   2.4940E+00
       1     67    103       6        6    1.0005E+02   1.0859E+03   2.7150E-03   9.0000E-01   2.4940E+00
       1     68    103       6        7    1.0005E+02   1.0856E+03   2.7150E-03   9.0000E-01   2.4940E+00
       1     69    103       6        8    1.0005E+02   1.0854E+03   2.7150E-03   9.0000E-01   2.4940E+00
       1     70    103       6        9    1.0005E+02   1.0851E+03   2.7150E-03   9.0000E-01   2.4940E+00
       1     71    103       6       10    1.0005E+02   1.0848E+03   2.3550E-03   9.0000E-01   2.4940E+00
       1     72    103       6       11    1.0000E+00   1.0846E+03   3.2050E-03   9.0000E-01   0.0000E+00
       1     56    114       7        1    1.0302E+02   1.0904E+03   2.2050E-03   9.0000E-01   2.4940E+00
       1     56    113       7        2    1.0029E+02   1.0903E+03   7.4500E-04   9.0000E-01   2.4940E+00
       1     56    112       7        3    1.0026E+02   1.0902E+03   2.2440E-03   9.0000E-01   2.4940E+00
       1     56    111       7        4    1.0026E+02   1.0900E+03   2.2440E-03   9.0000E-01   2.4940E+00
       1     55    110       7        5    1.0026E+02   1.0898E+03   2.2440E-03   9.0000E-01   2.4940E+00
       1     55    109       7        6    1.0026E+02   1.0896E+03   2.2440E-03   9.0000E-01   2.4940E+00
       1     55    108       7        7    1.0026E+02   1.0893E+03   3.3760E-03   9.0000E-01   2.4940E+00
       1     55    107       7        8    1.0026E+02   1.0890E+03   3.3760E-03   9.0000E-01   2.4940E+00
       1     55    106       7        9    1.0026E+02   1.0887E+03   3.3760E-03   9.0000E-01   2.4940E+00
       1     55    105       7       10    1.0026E+02   1.0883E+03   3.3760E-03   9.0000E-01   2.4940E+00
       1     55    104       7       11    1.0026E+02   1.0880E+03   3.2510E-03   9.0000E-01   2.4940E+00
       1     55    103       7       12    1.0000E+00   1.0877E+03   3.5120E-03   9.0000E-01   0.0000E+00
       1     67    121       8        1    9.2899E+01   1.0854E+03   2.6520E-03   9.0000E-01   2.4940E+00
       1     67    120       8        2    1.0053E+02   1.0852E+03   2.5090E-03   9.0000E-01   2.4940E+00
       1     67    119       8        3    1.0082E+02   1.0849E+03   1.3200E-04   9.0000E-01   2.4940E+00
       1     67    118       8        4    1.1978E+02   1.0849E+03   1.0000E-04   9.0000E-01   2.4940E+00
       1     67    117       8        5    8.5620E+01   1.0849E+03   1.0000E-04   9.0000E-01   2.4940E+00
       1     68    117       8        6    2.3141E+01   1.0849E+03   1.0000E-04   9.0000E-01   2.4940E+00
       1     68    116       8        7    1.1722E+02   1.0849E+03   1.0000E-04   9.0000E-01   2.4940E+00
       1     68    115       8        8    4.7185E+01   1.0849E+03   1.0000E-04   9.0000E-01   2.4940E+00
       1     69    115       8        9    8.6932E+01   1.0849E+03   1.0000E-04   9.0000E-01   2.4940E+00
       1     69    114       8       10    7.3494E+01   1.0849E+03   1.0000E-04   9.0000E-01   2.4940E+00
       1     70    114       8       11    5.1747E+01   1.0849E+03   1.0000E-04   9.0000E-01   2.4940E+00
       1     70    113       8       12    1.0420E+02   1.0849E+03   1.0000E-04   9.0000E-01   2.4940E+00
       1     70    112       8       13    1.0364E+02   1.0849E+03   1.0000E-04   9.0000E-01   2.4940E+00
       1     71    112       8       14    7.8892E+00   1.0849E+03   1.0000E-04   9.0000E-01   2.4940E+00
       1     71    111       8       15    1.0449E+01   1.0849E+03   2.7300E-04   9.0000E-01   2.4940E+00
       1     70    111       8       16    9.7095E+01   1.0849E+03   1.0000E-04   9.0000E-01   2.4940E+00
       1     70    110       8       17    1.1024E+02   1.0849E+03   1.0000E-04   9.0000E-01   2.4940E+00
       1     71    109       8       18    1.4656E+02   1.0849E+03   3.5850E-03   9.0000E-01   2.4940E+00
       1     71    108       8       19    7.2520E+01   1.0843E+03   1.0000E-04   9.0000E-01   2.4940E+00
       1     72    108       8       20    1.0000E+00   1.0843E+03   1.0000E-04   9.0000E-01   0.0000E+00
       1     72    107       8       21    1.0000E+00   1.0843E+03   1.0000E-04   9.0000E-01   0.0000E+00
       1     72    107       9        1    1.0000E+00   1.0863E+03   5.6010E-03   9.0000E-01   0.0000E+00
       1     72    107       9        2    1.3924E+02   1.0861E+03   1.3953E-02   9.0000E-01   2.4940E+00
       1     72    106       9        3    1.1162E+02   1.0856E+03   3.5410E-03   9.0000E-01   2.4940E+00
       1     72    105       9        4    5.8759E+00   1.0852E+03   6.2815E-02   9.0000E-01   2.4940E+00
       1     73    105       9        5    1.0383E+02   1.0848E+03   4.8280E-03   9.0000E-01   2.4940E+00
       1     73    104       9        6    4.5175E+01   1.0843E+03   8.0720E-03   9.0000E-01   2.4940E+00
       1     72    104       9        7    6.3216E+01   1.0839E+03   5.3160E-03   9.0000E-01   2.4940E+00
       1     72    103       9        8    1.0000E+00   1.0836E+03   9.1650E-03   9.0000E-01   0.0000E+00
       1     20    125      10        1    2.2057E+01   1.0970E+03   2.1600E-04   9.0000E-01   2.4940E+00
       1     21    125      10        2    1.0001E+02   1.0970E+03   1.0000E-04   9.0000E-01   2.4940E+00
       1     22    125      10        3    1.0001E+02   1.0970E+03   1.0000E-04   9.0000E-01   2.4940E+00
       1     23    125      10        4    1.0001E+02   1.0970E+03   1.0000E-04   9.0000E-01   2.4940E+00
       1     24    125      10        5    1.0001E+02   1.0970E+03   1.0000E-04   9.0000E-01   2.4940E+00
       1     25    125      10        6    1.0001E+02   1.0970E+03   1.0000E-04   9.0000E-01   2.4940E+00
       1     26    125      10        7    1.0001E+02   1.0970E+03   1.0000E-04   9.0000E-01   2.4940E+00
       1     27    125      10        8    1.0001E+02   1.0969E+03   1.0000E-04   9.0000E-01   2.4940E+00
       1     28    125      10        9    1.0001E+02   1.0969E+03   1.0000E-04   9.0000E-01   2.4940E+00
       1     29    125      10       10    1.0001E+02   1.0969E+03   1.0000E-04   9.0000E-01   2.4940E+00
       1     30    125      10       11    1.0001E+02   1.0969E+03   1.0000E-04   9.0000E-01   2.4940E+00
       1     31    125      10       12    1.0001E+02   1.0969E+03   1.0000E-04   9.0000E-01   2.4940E+00
       1     32    125      10       13    1.0001E+02   1.0969E+03   7.4200E-04   9.0000E-01   2.4940E+00
       1     33    125      10       14    1.0001E+02   1.0968E+03   8.5900E-04   9.0000E-01   2.4940E+00
       1     34    125      10       15    1.0001E+02   1.0967E+03   1.3570E-03   9.0000E-01   2.4940E+00
       1     35    125      10       16    1.0001E+02   1.0966E+03   3.3660E-03   9.0000E-01   2.4940E+00
       1     36    125      10       17    1.0005E+02   1.0963E+03   3.5550E-03   9.0000E-01   2.4940E+00
       1     37    125      10       18    1.0006E+02   1.0959E+03   1.5270E-03   9.0000E-01   2.4940E+00
       1     38    125      10       19    1.0006E+02   1.0958E+03   3.5330E-03   9.0000E-01   2.4940E+00
       1     39    125      10       20    1.0006E+02   1.0954E+03   5.1550E-03   9.0000E-01   2.4940E+00
       1     40    125      10       21    1.0006E+02   1.0949E+03   5.8550E-03   9.0000E-01   2.4940E+00
       1     41    125      10       22    1.0006E+02   1.0943E+03   4.9360E-03   9.0000E-01   2.4940E+00
       1     42    125      10       23    1.0006E+02   1.0938E+03   2.9950E-03   9.0000E-01   2.4940E+00
       1     43    125      10       24    1.0000E+00   1.0935E+03   7.0940E-03   9.0000E-01   0.0000E+00
       1     43    125      10       25    9.9952E+01   1.0934E+03   2.2910E-03   9.0000E-01   2.4940E+00
       1     44    125      10       26    1.0786E+02   1.0932E+03   1.4960E-03   9.0000E-01   2.4940E+00
       1     45    125      10       27    3.1458E+01   1.0931E+03   3.9980E-03   9.0000E-01   2.4940E+00
       1     45    124      10       28    7.7137E+01   1.0929E+03   2.7740E-03   9.0000E-01   2.4940E+00
       1     46    124      10       29    1.0760E+02   1.0927E+03   1.0470E-03   9.0000E-01   2.4940E+00
       1     47    124      10       30    9.3612E+01   1.0926E+03   6.6600E-04   9.0000E-01   2.4940E+00
       1     47    123      10       31    1.7825E+01   1.0925E+03   4.0580E-03   9.0000E-01   2.4940E+00
       1     48    123      10       32    1.1144E+02   1.0925E+03   1.0490E-03   9.0000E-01   2.4940E+00
       1     49    123      10       33    9.7352E+01   1.0924E+03   1.2500E-04   9.0000E-01   2.4940E+00
       1     49    122      10       34    1.4085E+01   1.0923E+03   9.7200E-04   9.0000E-01   2.4940E+00
       1     50    122      10       35    1.1144E+02   1.0923E+03   6.3750E-03   9.0000E-01   2.4940E+00
       1     51    122      10       36    1.0300E+02   1.0916E+03   1.9680E-03   9.0000E-01   2.4940E+00
       1     51    121      10       37    7.9507E+00   1.0914E+03   2.7318E-02   9.0000E-01   2.4940E+00
       1     52    121      10       38    1.1093E+02   1.0912E+03   3.6540E-03   9.0000E-01   2.4940E+00
       1     53    121      10       39    1.1093E+02   1.0908E+03   1.8460E-03   9.0000E-01   2.4940E+00
       1     54    121      10       40    1.1659E+00   1.0906E+03   4.8295E-02   9.0000E-01   2.4940E+00
       1     54    120      10       41    1.0977E+02   1.0905E+03   1.0210E-03   9.0000E-01   2.4940E+00
       1     55    120      10       42    1.1093E+02   1.0904E+03   5.5500E-04   9.0000E-01   2.4940E+00
       1     56    120      10       43    1.0283E+01   1.0904E+03   1.0000E-04   9.0000E-01   2.4940E+00
       1     56    119      10       44    1.2284E+02   1.0904E+03   1.0000E-04   9.0000E-01   2.4940E+00
       1     56    118      10       45    1.0021E+02   1.0904E+03   1.0000E-04   9.0000E-01   2.4940E+00
       1     56    117      10       46    1.0021E+02   1.0904E+03   1.0000E-04   9.0000E-01   2.4940E+00
       1     56    116      10       47    1.0021E+02   1.0904E+03   1.0000E-04   9.0000E-01   2.4940E+00
       1     56    115      10       48    1.0025E+02   1.0904E+03   1.0000E-04   9.0000E-01   2.4940E+00
       1     56    114      10       49    1.0000E+00   1.0904E+03   1.0000E-04   9.0000E-01   0.0000E+00
       1     69     87      11        1    1.1724E+02   1.0840E+03   9.7700E-04   9.0000E-01   2.4940E+00
       1     68     87      11        2    1.2808E+01   1.0840E+03   4.0610E-03   9.0000E-01   2.4940E+00
       1     68     86      11        3    4.6267E+01   1.0839E+03   1.9280E-03   9.0000E-01   2.4940E+00
       1     69     86      11        4    5.5045E+01   1.0838E+03   2.5010E-03   9.0000E-01   2.4940E+00
       1     69     85      11        5    1.0131E+02   1.0836E+03   1.4150E-03   9.0000E-01   2.4940E+00
       1     69     84      11        6    6.1462E+01   1.0835E+03   1.6190E-03   9.0000E-01   2.4940E+00
       1     68     84      11        7    5.1527E+01   1.0834E+03   2.7360E-03   9.0000E-01   2.4940E+00
       1     68     83      11        8    1.0860E+02   1.0832E+03   1.6930E-03   9.0000E-01   2.4940E+00
       1     68     82      11        9    1.0028E+02   1.0830E+03   1.7720E-03   9.0000E-01   2.4940E+00
       1     68     81      11       10    1.0155E+02   1.0828E+03   1.7710E-03   9.0000E-01   2.4940E+00
       1     68     80      11       11    1.0268E+02   1.0826E+03   1.1960E-03   9.0000E-01   2.4940E+00
       1     68     79      11       12    3.6743E+01   1.0825E+03   2.4630E-03   9.0000E-01   2.4940E+00
       1     69     79      11       13    6.6020E+01   1.0824E+03   2.2510E-03   9.0000E-01   2.4940E+00
       1     69     78      11       14    1.0276E+02   1.0822E+03   1.7610E-03   9.0000E-01   2.4940E+00
       1     69     77      11       15    1.0276E+02   1.0820E+03   1.7610E-03   9.0000E-01   2.4940E+00
       1     69     76      11       16    1.0276E+02   1.0818E+03   1.7480E-03   9.0000E-01   2.4940E+00
       1     69     75      11       17    1.0124E+02   1.0816E+03   1.7520E-03   9.0000E-01   2.4940E+00
       1     70     74      11       18    1.0016E+02   1.0814E+03   1.4300E-03   9.0000E-01   2.4940E+00
       1     70     73      11       19    6.2555E+01   1.0813E+03   1.4820E-03   9.0000E-01   2.4940E+00
       1     69     73      11       20    4.2721E+01   1.0812E+03   3.1050E-03   9.0000E-01   2.4940E+00
       1     69     72      11       21    1.0796E+02   1.0810E+03   1.5930E-03   9.0000E-01   2.4940E+00
       1     69     71      11       22    8.7407E+01   1.0809E+03   1.1520E-03   9.0000E-01   2.4940E+00
       1     68     71      11       23    3.0215E+01   1.0808E+03   4.3280E-03   9.0000E-01   2.4940E+00
       1     68     70      11       24    1.2247E+02   1.0806E+03   1.0000E-03   9.0000E-01   2.4940E+00
       1     68     69      11       25    2.0521E+01   1.0805E+03   4.7940E-03   9.0000E-01   2.4940E+00
       1     67     69      11       26    9.4355E+01   1.0803E+03   1.7240E-03   9.0000E-01   2.4940E+00
       1     67     68      11       27    9.5564E+01   1.0802E+03   9.2200E-04   9.0000E-01   2.4940E+00
       1     68     68      11       28    7.2645E+00   1.0801E+03   7.3220E-03   9.0000E-01   2.4940E+00
       1     68     67      11       29    1.0000E+00   1.0800E+03   1.1290E-03   9.0000E-01   0.0000E+00
       1     68     67      11       30    7.2290E+01   1.0800E+03   6.2060E-03   9.0000E-01   2.4940E+00
       1     67     67      11       31    1.0914E+02   1.0798E+03   1.1880E-03   9.0000E-01   2.4940E+00
       1     66     67      11       32    4.2292E+01   1.0797E+03   2.1090E-03   9.0000E-01   2.4940E+00
       1     66     66      11       33    6.1864E+01   1.0796E+03   2.5580E-03   9.0000E-01   2.4940E+00
       1     65     66      11       34    1.2288E+02   1.0794E+03   1.3410E-03   9.0000E-01   2.4940E+00
       1     65     65      11       35    6.9557E+01   1.0792E+03   1.2870E-03   9.0000E-01   2.4940E+00
       1     64     65      11       36    3.5011E+01   1.0792E+03   3.3740E-03   9.0000E-01   2.4940E+00
       1     64     64      11       37    1.0292E+02   1.0790E+03   1.6890E-03   9.0000E-01   2.4940E+00
       1     64     63      11       38    1.0000E+02   1.0788E+03   1.0000E-04   9.0000E-01   2.4940E+00
       1     64     62      11       39    1.0000E+02   1.0786E+03   1.0000E-04   9.0000E-01   2.4940E+00
       1     64     61      11       40    1.0000E+02   1.0784E+03   1.0000E-04   9.0000E-01   2.4940E+00
       1     64     60      11       41    1.1241E+02   1.0782E+03   1.0000E-04   9.0000E-01   2.4940E+00
       1     63     60      11       42    4.1928E+01   1.0781E+03   1.0000E-04   9.0000E-01   2.4940E+00
       1     63     59      11       43    6.4130E+01   1.0780E+03   1.0000E-04   9.0000E-01   2.4940E+00
       1     62     59      11       44    8.2213E+01   1.0778E+03   1.0000E-04   9.0000E-01   2.4940E+00
       1     62     58      11       45    8.1014E+01   1.0777E+03   1.0000E-04   9.0000E-01   2.4940E+00
       1     63     58      11       46    4.2158E+01   1.0776E+03   1.0000E-04   9.0000E-01   2.4940E+00
       1     63     57      11       47    9.2276E+01   1.0774E+03   1.0000E-04   9.0000E-01   2.4940E+00
       1     64     57      11       48    5.6968E+01   1.0773E+03   1.0000E-04   9.0000E-01   2.4940E+00
       1     64     56      11       49    1.0007E+02   1.0771E+03   1.0020E-03   9.0000E-01   2.4940E+00
       1     64     55      11       50    1.0031E+02   1.0769E+03   6.8300E-04   9.0000E-01   2.4940E+00
       1     64     54      11       51    1.0109E+02   1.0767E+03   4.4000E-04   9.0000E-01   2.4940E+00
       1     64     53      11       52    1.8254E+01   1.0767E+03   8.0050E-03   9.0000E-01   2.4940E+00
       1     63     53      11       53    8.2840E+01   1.0766E+03   9.3160E-03   9.0000E-01   2.4940E+00
       1     63     52      11       54    1.2612E+02   1.0763E+03   6.2840E-03   9.0000E-01   2.4940E+00
       1     62     52      11       55    1.4513E+01   1.0763E+03   4.0938E-02   9.0000E-01   2.4940E+00
       1     62     51      11       56    9.0917E+01   1.0761E+03   3.5450E-03   9.0000E-01   2.4940E+00
       1     63     51      11       57    2.4543E+01   1.0761E+03   1.5298E-02   9.0000E-01   2.4940E+00
       1     63     50      11       58    1.0997E+02   1.0759E+03   1.2010E-03   9.0000E-01   2.4940E+00
       1     63     49      11       59    6.2750E+01   1.0757E+03   1.5670E-03   9.0000E-01   2.4940E+00
       1     64     49      11       60    6.5882E+01   1.0756E+03   1.9450E-03   9.0000E-01   2.4940E+00
       1     64     48      11       61    1.0173E+02   1.0754E+03   1.5350E-03   9.0000E-01   2.4940E+00
       1     64     47      11       62    1.0247E+02   1.0752E+03   1.0000E-04   9.0000E-01   2.4940E+00
       1     64     46      11       63    1.0384E+02   1.0750E+03   1.0000E-04   9.0000E-01   2.4940E+00
       1     64     45      11       64    1.2539E+02   1.0748E+03   1.0000E-04   9.0000E-01   2.4940E+00
       1     64     44      11       65    2.3191E+01   1.0747E+03   1.3100E-04   9.0000E-01   2.4940E+00
       1     65     44      11       66    1.0622E+02   1.0745E+03   1.0000E-04   9.0000E-01   2.4940E+00
       1     65     43      11       67    7.4023E+01   1.0744E+03   1.0000E-04   9.0000E-01   2.4940E+00
       1     64     43      11       68    3.7872E+01   1.0743E+03   1.0000E-04   9.0000E-01   2.4940E+00
       1     64     42      11       69    1.0553E+02   1.0741E+03   1.0000E-04   9.0000E-01   2.4940E+00
       1     64     41      11       70    1.0468E+02   1.0739E+03   1.0000E-04   9.0000E-01   2.4940E+00
       1     64     40      11       71    1.0026E+02   1.0737E+03   1.0000E-04   9.0000E-01   2.4940E+00
       1     64     39      11       72    1.0021E+02   1.0735E+03   1.0000E-04   9.0000E-01   2.4940E+00
       1     64     38      11       73    6.3127E+01   1.0734E+03   1.0000E-04   9.0000E-01   2.4940E+00
       1     63     38      11       74    4.8786E+01   1.0733E+03   1.0000E-04   9.0000E-01   2.4940E+00
       1     63     37      11       75    1.0639E+02   1.0731E+03   1.0000E-04   9.0000E-01   2.4940E+00
       1     62     37      11       76    2.4390E+01   1.0731E+03   1.3300E-04   9.0000E-01   2.4940E+00
       1     62     36      11       77    1.1389E+02   1.0729E+03   3.4120E-03   9.0000E-01   2.4940E+00
       1     62     35      11       78    1.0481E+02   1.0727E+03   8.8900E-04   9.0000E-01   2.4940E+00
       1     62     34      11       79    1.0088E+01   1.0726E+03   1.5247E-02   9.0000E-01   2.4940E+00
       1     61     34      11       80    9.4722E+01   1.0725E+03   3.5870E-03   9.0000E-01   2.4940E+00
       1     61     33      11       81    1.0234E+02   1.0723E+03   2.9300E-04   9.0000E-01   2.4940E+00
       1     61     32      11       82    1.0207E+02   1.0721E+03   1.1070E-03   9.0000E-01   2.4940E+00
       1     61     31      11       83    1.0207E+02   1.0719E+03   1.2990E-03   9.0000E-01   2.4940E+00
       1     61     30      11       84    4.5651E+01   1.0718E+03   1.0930E-03   9.0000E-01   2.4940E+00
       1     60     30      11       85    5.6424E+01   1.0717E+03   1.4060E-03   9.0000E-01   2.4940E+00
       1     60     29      11       86    1.0584E+02   1.0715E+03   8.6200E-04   9.0000E-01   2.4940E+00
       1     60     28      11       87    1.0802E+02   1.0713E+03   1.3460E-03   9.0000E-01   2.4940E+00
       1     60     27      11       88    1.8155E+01   1.0712E+03   8.3980E-03   9.0000E-01   2.4940E+00
       1     59     27      11       89    1.0000E+00   1.0710E+03   8.1100E-04   9.0000E-01   0.0000E+00
       1     58     27      11       90    5.6561E+00   1.0710E+03   1.3840E-03   9.0000E-01   2.4940E+00
       1     59     27      11       91    1.6301E+02   1.0709E+03   3.3100E-04   9.0000E-01   2.4940E+00
       1     59     26      11       92    9.7470E+01   1.0707E+03   2.8835E-02   9.0000E-01   2.4940E+00
       1     58     26      11       93    1.1626E+01   1.0707E+03   5.7000E-03   9.0000E-01   2.4940E+00
       1     58     25      11       94    1.0962E+02   1.0707E+03   1.0930E-03   9.0000E-01   2.4940E+00
       1     58     24      11       95    1.0966E+02   1.0705E+03   6.0600E-04   9.0000E-01   2.4940E+00
       1     58     23      11       96    1.2004E+01   1.0705E+03   5.0860E-03   9.0000E-01   2.4940E+00
       1     57     23      11       97    9.9691E+01   1.0704E+03   1.1340E-03   9.0000E-01   2.4940E+00
       1     57     22      11       98    1.0708E+02   1.0703E+03   8.1100E-04   9.0000E-01   2.4940E+00
       1     57     21      11       99    5.1792E+01   1.0702E+03   1.0960E-03   9.0000E-01   2.4940E+00
       1     56     21      11      100    5.2059E+01   1.0702E+03   1.6100E-03   9.0000E-01   2.4940E+00
       1     56     20      11      101    1.0127E+02   1.0701E+03   1.0930E-03   9.0000E-01   2.4940E+00
       1     56     19      11      102    1.0127E+02   1.0700E+03   1.0980E-03   9.0000E-01   2.4940E+00
       1     56     18      11      103    1.0218E+02   1.0698E+03   1.0950E-03   9.0000E-01   2.4940E+00
       1     56     17      11      104    1.0255E+02   1.0697E+03   1.0850E-03   9.0000E-01   2.4940E+00
       1     56     16      11      105    1.0109E+02   1.0696E+03   5.9500E-04   9.0000E-01   2.4940E+00
       1     56     15      11      106    8.9605E+00   1.0696E+03   6.6290E-03   9.0000E-01   2.4940E+00
       1     55     15      11      107    9.9703E+01   1.0695E+03   1.1530E-03   9.0000E-01   2.4940E+00
       1     55     14      11      108    1.1060E+02   1.0694E+03   1.0470E-03   9.0000E-01   2.4940E+00
       1     55     13      11      109    1.0131E+02   1.0693E+03   1.0900E-03   9.0000E-01   2.4940E+00
       1     55     12      11      110    1.0069E+02   1.0692E+03   1.0040E-03   9.0000E-01   2.4940E+00
       1     55     11      11      111    5.7287E+00   1.0691E+03   1.6879E-02   9.0000E-01   2.4940E+00
       1     54     11      11      112    9.6095E+01   1.0690E+03   1.3180E-03   9.0000E-01   2.4940E+00
       1     54     10      11      113    3.7274E+01   1.0688E+03   3.0720E-03   9.0000E-01   2.4940E+00
       1     55     10      11      114    8.3316E+01   1.0687E+03   2.0120E-03   9.0000E-01   2.4940E+00
       1     55      9      11      115    9.3188E+01   1.0686E+03   1.2370E-03   9.0000E-01   2.4940E+00
       1     56      9      11      116    2.8168E+01   1.0684E+03   2.5280E-03   9.0000E-01   2.4940E+00
       1     56      8      11      117    4.6811E+01   1.0684E+03   2.2490E-03   9.0000E-01   2.4940E+00
       1     55      8      11      118    6.4050E+01   1.0683E+03   2.5880E-03   9.0000E-01   2.4940E+00
       1     55      7      11      119    1.1050E+02   1.0681E+03   1.4690E-03   9.0000E-01   2.4940E+00
       1     55      6      11      120    6.0451E+01   1.0679E+03   1.7350E-03   9.0000E-01   2.4940E+00
       1     54      6      11      121    4.9982E+01   1.0678E+03   2.9560E-03   9.0000E-01   2.4940E+00
       1     54      5      11      122    1.0558E+02   1.0677E+03   1.8990E-03   9.0000E-01   2.4940E+00
       1     54      4      11      123    1.0558E+02   1.0675E+03   1.2620E-03   9.0000E-01   2.4940E+00
       1     54      3      11      124    3.4751E+01   1.0673E+03   2.8720E-03   9.0000E-01   2.4940E+00
       1     53      3      11      125    7.0360E+01   1.0672E+03   2.3470E-03   9.0000E-01   2.4940E+00
       1     53      2      11      126    1.0357E+02   1.0671E+03   1.8990E-03   9.0000E-01   2.4940E+00
       1     53      1      11      127    1.0357E+02   1.0669E+03   1.8760E-03   9.0000E-01   2.4940E+00
       1     80    125      12        1    9.6321E+01   1.0880E+03   1.0000E-04   9.0000E-01   2.4940E+00
       1     80    124      12        2    8.5819E+01   1.0880E+03   1.0000E-04   9.0000E-01   2.4940E+00
       1     79    124      12        3    2.9213E+01   1.0880E+03   1.8600E-04   9.0000E-01   2.4940E+00
       1     79    123      12        4    1.0795E+02   1.0880E+03   1.0000E-04   9.0000E-01   2.4940E+00
       1     79    122      12        5    1.0001E+02   1.0880E+03   1.0000E-04   9.0000E-01   2.4940E+00
       1     79    121      12        6    1.0001E+02   1.0880E+03   2.7950E-03   9.0000E-01   2.4940E+00
       1     79    120      12        7    1.0001E+02   1.0877E+03   3.4980E-03   9.0000E-01   2.4940E+00
       1     79    119      12        8    1.0000E+02   1.0873E+03   2.6260E-03   9.0000E-01   2.4940E+00
       1     79    118      12        9    1.0000E+02   1.0871E+03   1.1410E-03   9.0000E-01   2.4940E+00
       1     79    117      12       10    1.0000E+02   1.0870E+03   5.3300E-04   9.0000E-01   2.4940E+00
       1     79    116      12       11    1.0683E+02   1.0869E+03   1.0000E-04   9.0000E-01   2.4940E+00
       1     79    115      12       12    1.0832E+02   1.0869E+03   1.0000E-04   9.0000E-01   2.4940E+00
       1     79    114      12       13    1.5564E+02   1.0869E+03   1.0000E-04   9.0000E-01   2.4940E+00
       1     78    114      12       14    3.8104E+00   1.0869E+03   3.5000E-04   9.0000E-01   2.4940E+00
       1     78    113      12       15    1.0036E+02   1.0869E+03   1.0000E-04   9.0000E-01   2.4940E+00
       1     77    113      12       16    1.2351E+02   1.0869E+03   1.0000E-04   9.0000E-01   2.4940E+00
       1     77    112      12       17    3.9276E+01   1.0869E+03   1.0000E-04   9.0000E-01   2.4940E+00
       1     76    112      12       18    6.8874E+01   1.0869E+03   1.0000E-04   9.0000E-01   2.4940E+00
       1     76    111      12       19    1.1850E+02   1.0869E+03   1.0000E-04   9.0000E-01   2.4940E+00
       1     75    111      12       20    1.3109E+01   1.0869E+03   1.4000E-04   9.0000E-01   2.4940E+00
       1     75    110      12       21    1.2956E+02   1.0869E+03   1.0000E-04   9.0000E-01   2.4940E+00
       1     74    110      12       22    1.0269E+01   1.0869E+03   1.7100E-04   9.0000E-01   2.4940E+00
       1     74    109      12       23    1.2634E+02   1.0869E+03   1.0000E-04   9.0000E-01   2.4940E+00
       1     74    108      12       24    2.6000E+01   1.0869E+03   1.0000E-04   9.0000E-01   2.4940E+00
       1     73    108      12       25    1.2490E+02   1.0869E+03   1.0000E-04   9.0000E-01   2.4940E+00
       1     72    108      12       26    6.4278E+01   1.0869E+03   1.3719E-02   9.0000E-01   2.4940E+00
       1     72    107      12       27    1.0000E+00   1.0863E+03   1.0157E-02   9.0000E-01   0.0000E+00
       1     55    103      13        1    1.5910E+02   1.0867E+03   3.4700E-04   9.0000E-01   2.4940E+00
       1     56    103      13        2    1.0005E+02   1.0866E+03   7.4000E-04   9.0000E-01   2.4940E+00
       1     57    103      13        3    1.0005E+02   1.0866E+03   7.4000E-04   9.0000E-01   2.4940E+00
       1     58    103      13        4    1.0005E+02   1.0865E+03   7.4000E-04   9.0000E-01   2.4940E+00
       1     59    103      13        5    1.0005E+02   1.0864E+03   7.4000E-04   9.0000E-01   2.4940E+00
       1     60    103      13        6    1.0005E+02   1.0863E+03   7.4000E-04   9.0000E-01   2.4940E+00
       1     61    103      13        7    1.0005E+02   1.0863E+03   7.4000E-04   9.0000E-01   2.4940E+00
       1     72    103      14        1    1.4890E+02   1.0856E+03   1.2280E-03   9.0000E-01   2.4940E+00
       1     72    102      14        2    1.3017E+02   1.0855E+03   4.0800E-04   9.0000E-01   2.4940E+00
       1     71    102      14        3    1.7183E+00   1.0855E+03   2.7188E-02   9.0000E-01   2.4940E+00
       1     71    101      14        4    1.1421E+02   1.0854E+03   6.2300E-04   9.0000E-01   2.4940E+00
       1     70    101      14        5    6.2256E+01   1.0853E+03   1.1020E-03   9.0000E-01   2.4940E+00
       1     70    100      14        6    1.0801E+02   1.0853E+03   7.8200E-04   9.0000E-01   2.4940E+00
       1     70     99      14        7    1.0170E+02   1.0852E+03   8.8100E-04   9.0000E-01   2.4940E+00
       1     70     98      14        8    1.2077E+02   1.0851E+03   4.4100E-04   9.0000E-01   2.4940E+00
       1     70     97      14        9    1.1495E+01   1.0850E+03   4.0140E-03   9.0000E-01   2.4940E+00
       1     71     97      14       10    1.0299E+02   1.0850E+03   7.9900E-04   9.0000E-01   2.4940E+00
       1     71     96      14       11    1.0109E+02   1.0849E+03   4.6800E-04   9.0000E-01   2.4940E+00
       1     72     96      14       12    1.6321E+01   1.0849E+03   3.3120E-03   9.0000E-01   2.4940E+00
       1     72     95      14       13    1.1783E+02   1.0848E+03   8.0900E-04   9.0000E-01   2.4940E+00
       1     72     94      14       14    1.1882E+02   1.0847E+03   7.2700E-04   9.0000E-01   2.4940E+00
       1     72     93      14       15    9.5546E+01   1.0846E+03   7.6800E-04   9.0000E-01   2.4940E+00
       1     71     93      14       16    8.6625E+01   1.0846E+03   5.2900E-04   9.0000E-01   2.4940E+00
       1     71     92      14       17    2.7065E+01   1.0845E+03   2.3170E-03   9.0000E-01   2.4940E+00
       1     70     92      14       18    1.2854E+02   1.0845E+03   4.2700E-04   9.0000E-01   2.4940E+00
       1     69     92      14       19    7.7706E+00   1.0844E+03   6.3680E-03   9.0000E-01   2.4940E+00
       1     69     91      14       20    1.1502E+02   1.0843E+03   7.5600E-04   9.0000E-01   2.4940E+00
       1     69     90      14       21    1.0071E+02   1.0843E+03   6.3100E-04   9.0000E-01   2.4940E+00
       1     70     90      14       22    5.6966E+01   1.0842E+03   1.1910E-03   9.0000E-01   2.4940E+00
       1     70     89      14       23    1.1139E+02   1.0841E+03   7.0600E-04   9.0000E-01   2.4940E+00
       1     70     88      14       24    8.3721E+01   1.0841E+03   5.9800E-04   9.0000E-01   2.4940E+00
       1     69     88      14       25    4.0575E+01   1.0840E+03   1.2340E-03   9.0000E-01   2.4940E+00






   2 GAGING STATIONS WERE SPECIFIED.
     (Lakes are identified by a negative value of the Lake Number)
     RECORDS WILL BE WRITTEN TO SEPARATE OUTPUT FILES REPRESENTED BY FOLLOWING UNIT NUMBERS:

 Stream Gages:
  GAGE #   SEGMENT   REACH   UNIT   OUTTYPE
       1      11      56     250       0
       2      11     127     251       0





 HYD -- HYDROGRAPH DATA FOR BAS PACKAGE, VERSION 7, 07/14/2006
         INPUT READ FROM UNIT 36
 HYDROGRAPH VALUES WILL BE SAVED ON UNIT: 536
 HYDROGRAPH VALUES AT DRY CELLS WILL BE:   -999.00    

 ARR INTYP  KLAY     XL            YL         HYDLBL
 ----------------------------------------------------------------
 HD   I      1   1.91245E+03   6.32122E+02  HDI00100910042_uwsp 
 HD   I      2   1.91245E+03   6.32122E+02  HDI00200910042_uwsp 
 HD   I      3   1.91245E+03   6.32122E+02  HDI00300910042_uwsp 
 HD   I      1   1.17792E+03   3.24840E+03  HDI00100940041_uwsp 
 HD   I      2   1.17792E+03   3.24840E+03  HDI00200940041_uwsp 
 HD   I      3   1.17792E+03   3.24840E+03  HDI00300940041_uwsp 
 HD   I      1   3.33619E+03   2.52045E+03  HDI0012309e1803_uwsp
 HD   I      2   3.33619E+03   2.52045E+03  HDI0022309e1803_uwsp
 HD   I      3   3.33619E+03   2.52045E+03  HDI0032309e1803_uwsp
 HD   I      1   3.79157E+03   3.94312E+02  HDI0012309e3000_uwsp
 HD   I      2   3.79157E+03   3.94312E+02  HDI0022309e3000_uwsp
 HD   I      3   3.79157E+03   3.94312E+02  HDI0032309e3000_uwsp
 HD   I      1   1.71616E+03   4.19766E+01  HDI0012702089302201 
 Coordinates of the following record are outside of the model grid:
BAS HD I 1 1716.157958984375 41.976558685302734 2702089302201                   
 HD   I      2   1.71616E+03   4.19766E+01  HDI0022702089302201 
 Coordinates of the following record are outside of the model grid:
BAS HD I 2 1716.157958984375 41.976558685302734 2702089302201                   
 HD   I      3   1.71616E+03   4.19766E+01  HDI0032702089302201 
 Coordinates of the following record are outside of the model grid:
BAS HD I 3 1716.157958984375 41.976558685302734 2702089302201                   
 HD   I      1   3.79158E+03   3.94308E+02  HDI0012713089284801 
 HD   I      2   3.79158E+03   3.94308E+02  HDI0022713089284801 
 HD   I      3   3.79158E+03   3.94308E+02  HDI0032713089284801 
 HD   I      1   8.73925E+02   4.38049E+02  HDI0012715089310001 
 HD   I      2   8.73925E+02   4.38049E+02  HDI0022715089310001 
 HD   I      3   8.73925E+02   4.38049E+02  HDI0032715089310001 
 HD   I      1   4.01199E+03   4.88286E+02  HDI0012716089283801 
 HD   I      2   4.01199E+03   4.88286E+02  HDI0022716089283801 
 HD   I      3   4.01199E+03   4.88286E+02  HDI0032716089283801 
 HD   I      1   1.05000E+03   5.62521E+02  HDI0012719089305201 
 HD   I      2   1.05000E+03   5.62521E+02  HDI0022719089305201 
 HD   I      3   1.05000E+03   5.62521E+02  HDI0032719089305201 
 HD   I      1   8.71199E+02   9.00867E+02  HDI0012730089310001 
 HD   I      2   8.71199E+02   9.00867E+02  HDI0022730089310001 
 HD   I      3   8.71199E+02   9.00867E+02  HDI0032730089310001 
 HD   I      1   1.95217E+03   1.21592E+03  HDI0012740089301101 
 HD   I      2   1.95217E+03   1.21592E+03  HDI0022740089301101 
 HD   I      3   1.95217E+03   1.21592E+03  HDI0032740089301101 
 HD   I      1   5.14007E+02   1.51587E+03  HDI0012750089311601 
 HD   I      2   5.14007E+02   1.51587E+03  HDI0022750089311601 
 HD   I      3   5.14007E+02   1.51587E+03  HDI0032750089311601 
 HD   I      1   8.65739E+02   1.82650E+03  HDI0012800089310001 
 HD   I      2   8.65739E+02   1.82650E+03  HDI0022800089310001 
 HD   I      3   8.65739E+02   1.82650E+03  HDI0032800089310001 
 HD   I      1   2.07819E+03   2.29663E+03  HDI0012815089300501 
 HD   I      2   2.07819E+03   2.29663E+03  HDI0022815089300501 
 HD   I      3   2.07819E+03   2.29663E+03  HDI0032815089300501 
 HD   I      1   1.65802E+03   2.35579E+03  HDI0012817089302401 
 HD   I      2   1.65802E+03   2.35579E+03  HDI0022817089302401 
 HD   I      3   1.65802E+03   2.35579E+03  HDI0032817089302401 
 HD   I      1   1.59174E+03   2.35538E+03  HDI0012817089302701 
 HD   I      2   1.59174E+03   2.35538E+03  HDI0022817089302701 
 HD   I      3   1.59174E+03   2.35538E+03  HDI0032817089302701 
 HD   I      1   3.33619E+03   2.52045E+03  HDI0012822089290801 
 HD   I      2   3.33619E+03   2.52045E+03  HDI0022822089290801 
 HD   I      3   3.33619E+03   2.52045E+03  HDI0032822089290801 
 HD   I      1   2.29554E+03   2.88422E+03  HDI0012834089295501 
 HD   I      2   2.29554E+03   2.88422E+03  HDI0022834089295501 
 HD   I      3   2.29554E+03   2.88422E+03  HDI0032834089295501 
 HD   I      1   2.51532E+03   3.07071E+03  HDI0012840089294501 
 HD   I      2   2.51532E+03   3.07071E+03  HDI0022840089294501 
 HD   I      3   2.51532E+03   3.07071E+03  HDI0032840089294501 
 HD   I      1   3.48540E+03   3.38535E+03  HDI0012850089290101 
 HD   I      2   3.48540E+03   3.38535E+03  HDI0022850089290101 
 HD   I      3   3.48540E+03   3.38535E+03  HDI0032850089290101 
 HD   I      1   1.51749E+03   3.68172E+03  HDI0012900089303001 
 HD   I      2   1.51749E+03   3.68172E+03  HDI0022900089303001 
 HD   I      3   1.51749E+03   3.68172E+03  HDI0032900089303001 
 HD   I      1   2.46582E+03   3.93436E+03  HDI0012908089294701 
 HD   I      2   2.46582E+03   3.93436E+03  HDI0022908089294701 
 HD   I      3   2.46582E+03   3.93436E+03  HDI0032908089294701 
 HD   I      1   4.55581E+02   3.95310E+03  HDI0012909089311801 
 HD   I      2   4.55581E+02   3.95310E+03  HDI0022909089311801 
 HD   I      3   4.55581E+02   3.95310E+03  HDI0032909089311801 
 HD   I      1   1.73559E+03   4.14587E+03  HDI0012915089302001 
 HD   I      2   1.73559E+03   4.14587E+03  HDI0022915089302001 
 HD   I      3   1.73559E+03   4.14587E+03  HDI0032915089302001 
1
                            STRESS PERIOD NO.    1, LENGTH =   31.00000    
                            -----------------------------------------------

                              NUMBER OF TIME STEPS =     5

                               MULTIPLIER FOR DELT =     1.200

                            INITIAL TIME STEP SIZE =   4.165771    

 OPENING FILE ON UNIT   99:
 external/WEL_0000.dat                                                                                                                                                                                   

 WELL NO.  LAYER   ROW   COL   STRESS RATE         
 --------------------------------------------------
      1      1    113     96      -0.000    
      2      2    113     96      -0.000    
      3      2    133     81      -0.000    
      4      1     42     78      -0.000    
      5      2     42     78      -0.000    
      6      2    107     89     -0.3674E+05
      7      3    107     89      -800.0    
      8      2    117     57      -0.000    
      9      1    136     64      -0.000    
     10      2    136     64      -0.000    
     11      2     44    113      -0.000    
     12      2     97     64      -0.000    
     13      2      6    130      -0.000    
     14      1    117     57      -0.000    
     15      2    102    115      -0.000    
     16      2     29    113      -0.000    
     17      3     29    113      -0.000    
     18      1     15     80      -0.000    
     19      3     14     77      -2846.    
     20      2     12    136      -0.000    
     21      2     28    164      -0.000    
     22      2     82     90      -0.000    
     23      2     83     64      -0.000    
     24      2     84     33      -0.000    
     25      2    114     30      -8858.    
     26      2     10     83      -103.5    
     27      2    104     18      -0.000    
     28      2     97     89     -0.3152E+05
     29      3     97     89      -684.1    
     30      2     15     94      -0.000    
     31      2     31     66      -0.000    
     32      2     40     77      -0.000    
     33      2     11     18      -0.000    
     34      2      3     50      -0.000    

     34 WELLS

 OPENING FILE ON UNIT   99:
 external/finf0.dat                                                                                                                                                                                      



                           RECHARGE
 READING ON UNIT   99 WITH FORMAT: (FREE)              

 OPENING FILE ON UNIT   99:
 external/CHD_0000.dat                                                                                                                                                                                   

 CHD NO.   LAYER   ROW   COL    START HEAD        END HEAD         
 ------------------------------------------------------------------
      1      1      1      1       1073.           1073.    
      2      1      1      2       1074.           1074.    
      3      1      1      3       1074.           1074.    
      4      1      1      4       1074.           1074.    
      5      1      1      5       1075.           1075.    
      6      1      1      6       1075.           1075.    
      7      1      1      7       1075.           1075.    
      8      1      1      8       1076.           1076.    
      9      1      1      9       1076.           1076.    
     10      1      1     10       1076.           1076.    
     11      1      1     11       1077.           1077.    
     12      1      1     12       1077.           1077.    
     13      1      1     13       1077.           1077.    
     14      1      1     14       1078.           1078.    
     15      1      1     15       1078.           1078.    
     16      1      1     16       1078.           1078.    
     17      1      1     17       1079.           1079.    
     18      1      1     18       1079.           1079.    
     19      1      1     19       1079.           1079.    
     20      1      1     20       1079.           1079.    
     21      1      1     21       1080.           1080.    
     22      1      1     22       1080.           1080.    
     23      1      1     23       1080.           1080.    
     24      1      1     24       1080.           1080.    
     25      1      1     25       1081.           1081.    
     26      1      1     26       1081.           1081.    
     27      1      1     27       1081.           1081.    
     28      1      1     28       1081.           1081.    
     29      1      1     29       1081.           1081.    
     30      1      1     30       1082.           1082.    
     31      1      1     31       1082.           1082.    
     32      1      1     32       1082.           1082.    
     33      1      1     33       1082.           1082.    
     34      1      1     34       1082.           1082.    
     35      1      1     35       1083.           1083.    
     36      1      1     36       1083.           1083.    
     37      1      1     37       1083.           1083.    
     38      1      1     38       1083.           1083.    
     39      1      1     39       1083.           1083.    
     40      1      1     40       1084.           1084.    
     41      1      1     41       1084.           1084.    
     42      1      1     42       1084.           1084.    
     43      1      1     43       1084.           1084.    
     44      1      1     44       1084.           1084.    
     45      1      1     45       1084.           1084.    
     46      1      1     46       1085.           1085.    
     47      1      1     47       1085.           1085.    
     48      1      1     48       1085.           1085.    
     49      1      1     49       1085.           1085.    
     50      1      1     50       1085.           1085.    
     51      1      1     51       1085.           1085.    
     52      1      1     52       1086.           1086.    
     53      1      1     53       1086.           1086.    
     54      1      1     54       1086.           1086.    
     55      1      1     55       1086.           1086.    
     56      1      1     56       1086.           1086.    
     57      1      1     57       1086.           1086.    
     58      1      1     58       1087.           1087.    
     59      1      1     59       1087.           1087.    
     60      1      1     60       1087.           1087.    
     61      1      1     61       1087.           1087.    
     62      1      1     62       1087.           1087.    
     63      1      1     63       1088.           1088.    
     64      1      1     64       1088.           1088.    
     65      1      1     65       1088.           1088.    
     66      1      1     66       1088.           1088.    
     67      1      1     67       1088.           1088.    
     68      1      1     68       1089.           1089.    
     69      1      1     69       1089.           1089.    
     70      1      1     70       1089.           1089.    
     71      1      1     71       1089.           1089.    
     72      1      1     72       1089.           1089.    
     73      1      1     73       1090.           1090.    
     74      1      1     74       1090.           1090.    
     75      1      1     75       1090.           1090.    
     76      1      1     76       1090.           1090.    
     77      1      1     77       1091.           1091.    
     78      1      1     78       1091.           1091.    
     79      1      1     79       1091.           1091.    
     80      1      1     80       1091.           1091.    
     81      1      1     81       1092.           1092.    
     82      1      1     82       1092.           1092.    
     83      1      1     83       1092.           1092.    
     84      1      1     84       1092.           1092.    
     85      1      1     85       1092.           1092.    
     86      1      1     86       1093.           1093.    
     87      1      1     87       1093.           1093.    
     88      1      1     88       1093.           1093.    
     89      1      1     89       1093.           1093.    
     90      1      1     90       1094.           1094.    
     91      1      1     91       1094.           1094.    
     92      1      1     92       1094.           1094.    
     93      1      1     93       1094.           1094.    
     94      1      1     94       1095.           1095.    
     95      1      1     95       1095.           1095.    
     96      1      1     96       1095.           1095.    
     97      1      1     97       1095.           1095.    
     98      1      1     98       1095.           1095.    
     99      1      1     99       1096.           1096.    
    100      1      1    100       1096.           1096.    
    101      1      1    101       1096.           1096.    
    102      1      1    102       1096.           1096.    
    103      1      1    103       1096.           1096.    
    104      1      1    104       1097.           1097.    
    105      1      1    105       1097.           1097.    
    106      1      1    106       1097.           1097.    
    107      1      1    107       1097.           1097.    
    108      1      1    108       1097.           1097.    
    109      1      1    109       1098.           1098.    
    110      1      1    110       1098.           1098.    
    111      1      1    111       1098.           1098.    
    112      1      1    112       1098.           1098.    
    113      1      1    113       1098.           1098.    
    114      1      1    114       1099.           1099.    
    115      1      1    115       1099.           1099.    
    116      1      1    116       1099.           1099.    
    117      1      1    117       1099.           1099.    
    118      1      1    118       1099.           1099.    
    119      1      1    119       1099.           1099.    
    120      1      1    120       1100.           1100.    
    121      1      1    121       1100.           1100.    
    122      1      1    122       1100.           1100.    
    123      1      1    123       1100.           1100.    
    124      1      1    124       1100.           1100.    
    125      1      1    125       1100.           1100.    
    126      1      1    126       1101.           1101.    
    127      1      1    127       1101.           1101.    
    128      1      1    128       1101.           1101.    
    129      1      1    129       1101.           1101.    
    130      1      1    130       1101.           1101.    
    131      1      1    131       1101.           1101.    
    132      1      1    132       1101.           1101.    
    133      1      1    133       1102.           1102.    
    134      1      1    134       1102.           1102.    
    135      1      1    135       1102.           1102.    
    136      1      1    136       1102.           1102.    
    137      1      1    137       1102.           1102.    
    138      1      1    138       1102.           1102.    
    139      1      1    139       1102.           1102.    
    140      1      1    140       1103.           1103.    
    141      1      1    141       1103.           1103.    
    142      1      1    142       1103.           1103.    
    143      1      1    143       1103.           1103.    
    144      1      1    144       1103.           1103.    
    145      1      1    145       1103.           1103.    
    146      1      1    146       1103.           1103.    
    147      1      1    147       1104.           1104.    
    148      1      1    148       1104.           1104.    
    149      1      1    149       1104.           1104.    
    150      1      1    150       1104.           1104.    
    151      1      1    151       1104.           1104.    
    152      1      1    152       1104.           1104.    
    153      1      1    153       1105.           1105.    
    154      1      1    154       1105.           1105.    
    155      1      1    155       1105.           1105.    
    156      1      1    156       1105.           1105.    
    157      1      1    157       1105.           1105.    
    158      1      1    158       1105.           1105.    
    159      1      1    159       1105.           1105.    
    160      1      1    160       1106.           1106.    
    161      1      1    161       1106.           1106.    
    162      1      1    162       1106.           1106.    
    163      1      1    163       1106.           1106.    
    164      1      1    164       1106.           1106.    
    165      1      1    165       1106.           1106.    
    166      1      1    166       1106.           1106.    
    167      1      1    167       1106.           1106.    
    168      1      1    168       1107.           1107.    
    169      1      1    169       1107.           1107.    
    170      1      1    170       1107.           1107.    
    171      1      1    171       1107.           1107.    
    172      1      2      1       1073.           1073.    
    173      1      3      1       1073.           1073.    
    174      1      4      1       1073.           1073.    
    175      1      5      1       1073.           1073.    
    176      1      6      1       1073.           1073.    
    177      1      7      1       1073.           1073.    
    178      1      8      1       1073.           1073.    
    179      1      9      1       1073.           1073.    
    180      1     10      1       1073.           1073.    
    181      1     11      1       1073.           1073.    
    182      1     12      1       1073.           1073.    
    183      1     13      1       1073.           1073.    
    184      1     14      1       1073.           1073.    
    185      1     15      1       1073.           1073.    
    186      1     16      1       1073.           1073.    
    187      1     17      1       1073.           1073.    
    188      1     18      1       1073.           1073.    
    189      1     19      1       1073.           1073.    
    190      1     20      1       1073.           1073.    
    191      1     21      1       1073.           1073.    
    192      1     22      1       1073.           1073.    
    193      1     23      1       1073.           1073.    
    194      1     24      1       1073.           1073.    
    195      1     25      1       1073.           1073.    
    196      1     26      1       1073.           1073.    
    197      1     27      1       1073.           1073.    
    198      1     28      1       1073.           1073.    
    199      1     29      1       1073.           1073.    
    200      1     30      1       1073.           1073.    
    201      1     31      1       1073.           1073.    
    202      1     32      1       1073.           1073.    
    203      1     33      1       1073.           1073.    
    204      1     34      1       1073.           1073.    
    205      1     35      1       1073.           1073.    
    206      1     36      1       1073.           1073.    
    207      1     37      1       1073.           1073.    
    208      1     38      1       1073.           1073.    
    209      1     39      1       1072.           1072.    
    210      1     40      1       1072.           1072.    
    211      1     41      1       1072.           1072.    
    212      1     42      1       1072.           1072.    
    213      1     43      1       1071.           1071.    
    214      1     44      1       1071.           1071.    
    215      1     45      1       1071.           1071.    
    216      1     46      1       1070.           1070.    
    217      1     47      1       1070.           1070.    
    218      1     48      1       1070.           1070.    
    219      1     49      1       1070.           1070.    
    220      1     50      1       1069.           1069.    
    221      1     51      1       1069.           1069.    
    222      1     52      1       1069.           1069.    
    223      1     53      1       1069.           1069.    
    224      1     54      1       1069.           1069.    
    225      1     55      1       1069.           1069.    
    226      1     56      1       1069.           1069.    
    227      1     57      1       1070.           1070.    
    228      1     58      1       1070.           1070.    
    229      1     59      1       1070.           1070.    
    230      1     60      1       1070.           1070.    
    231      1     61      1       1070.           1070.    
    232      1     62      1       1070.           1070.    
    233      1     63      1       1070.           1070.    
    234      1     64      1       1070.           1070.    
    235      1     65      1       1071.           1071.    
    236      1     66      1       1071.           1071.    
    237      1     67      1       1071.           1071.    
    238      1     68      1       1071.           1071.    
    239      1     69      1       1071.           1071.    
    240      1     70      1       1071.           1071.    
    241      1     71      1       1071.           1071.    
    242      1     72      1       1071.           1071.    
    243      1     73      1       1071.           1071.    
    244      1     74      1       1071.           1071.    
    245      1     75      1       1071.           1071.    
    246      1     76      1       1071.           1071.    
    247      1     77      1       1072.           1072.    
    248      1     78      1       1072.           1072.    
    249      1     79      1       1072.           1072.    
    250      1     80      1       1072.           1072.    
    251      1     81      1       1072.           1072.    
    252      1     82      1       1072.           1072.    
    253      1     83      1       1072.           1072.    
    254      1     84      1       1072.           1072.    
    255      1     85      1       1072.           1072.    
    256      1     86      1       1072.           1072.    
    257      1     87      1       1072.           1072.    
    258      1     88      1       1072.           1072.    
    259      1     89      1       1072.           1072.    
    260      1     90      1       1072.           1072.    
    261      1     91      1       1072.           1072.    
    262      1     92      1       1073.           1073.    
    263      1     93      1       1073.           1073.    
    264      1     94      1       1073.           1073.    
    265      1     95      1       1073.           1073.    
    266      1     96      1       1073.           1073.    
    267      1     97      1       1073.           1073.    
    268      1     98      1       1073.           1073.    
    269      1     99      1       1073.           1073.    
    270      1    100      1       1073.           1073.    
[...]
   1631      3    102    171       1100.           1101.    
   1632      3    103    171       1100.           1101.    
   1633      3    104    171       1100.           1101.    
   1634      3    105    171       1100.           1101.    
   1635      3    106    171       1100.           1101.    
   1636      3    107    171       1100.           1101.    
   1637      3    108    171       1100.           1101.    
   1638      3    109    171       1100.           1101.    
   1639      3    110    171       1100.           1100.    
   1640      3    111    171       1100.           1100.    
   1641      3    112    171       1100.           1100.    
   1642      3    113    171       1100.           1100.    
   1643      3    114    171       1100.           1100.    
   1644      3    115    171       1100.           1100.    
   1645      3    116    171       1100.           1100.    
   1646      3    117    171       1100.           1100.    
   1647      3    118    171       1100.           1100.    
   1648      3    119    171       1100.           1100.    
   1649      3    120    171       1100.           1100.    
   1650      3    121    171       1100.           1100.    
   1651      3    122    171       1100.           1100.    
   1652      3    123    171       1100.           1100.    
   1653      3    124    171       1100.           1100.    
   1654      3    125    171       1100.           1100.    
   1655      3    126    171       1099.           1100.    
   1656      3    127    171       1099.           1100.    
   1657      3    128    171       1099.           1100.    
   1658      3    129    171       1099.           1100.    
   1659      3    130    171       1099.           1100.    
   1660      3    131    171       1099.           1100.    
   1661      3    132    171       1099.           1100.    
   1662      3    133    171       1099.           1100.    
   1663      3    134    171       1099.           1100.    
   1664      3    135    171       1099.           1100.    
   1665      3    136    171       1099.           1100.    
   1666      3    137      1       1077.           1077.    
   1667      3    137      2       1077.           1077.    
   1668      3    137      3       1077.           1077.    
   1669      3    137      4       1077.           1077.    
   1670      3    137      5       1077.           1077.    
   1671      3    137      6       1077.           1078.    
   1672      3    137      7       1077.           1078.    
   1673      3    137      8       1077.           1078.    
   1674      3    137      9       1078.           1078.    
   1675      3    137     10       1078.           1078.    
   1676      3    137     11       1078.           1078.    
   1677      3    137     12       1078.           1078.    
   1678      3    137     13       1078.           1078.    
   1679      3    137     14       1078.           1078.    
   1680      3    137     15       1078.           1078.    
   1681      3    137     16       1078.           1078.    
   1682      3    137     17       1078.           1078.    
   1683      3    137     18       1078.           1079.    
   1684      3    137     19       1078.           1079.    
   1685      3    137     20       1078.           1079.    
   1686      3    137     21       1078.           1079.    
   1687      3    137     22       1079.           1079.    
   1688      3    137     23       1079.           1079.    
   1689      3    137     24       1079.           1079.    
   1690      3    137     25       1079.           1079.    
   1691      3    137     26       1079.           1079.    
   1692      3    137     27       1079.           1080.    
   1693      3    137     28       1079.           1080.    
   1694      3    137     29       1080.           1080.    
   1695      3    137     30       1080.           1080.    
   1696      3    137     31       1080.           1080.    
   1697      3    137     32       1080.           1080.    
   1698      3    137     33       1080.           1080.    
   1699      3    137     34       1080.           1081.    
   1700      3    137     35       1080.           1081.    
   1701      3    137     36       1081.           1081.    
   1702      3    137     37       1081.           1081.    
   1703      3    137     38       1081.           1081.    
   1704      3    137     39       1081.           1081.    
   1705      3    137     40       1081.           1082.    
   1706      3    137     41       1081.           1082.    
   1707      3    137     42       1081.           1082.    
   1708      3    137     43       1082.           1082.    
   1709      3    137     44       1082.           1082.    
   1710      3    137     45       1082.           1082.    
   1711      3    137     46       1082.           1082.    
   1712      3    137     47       1082.           1083.    
   1713      3    137     48       1082.           1083.    
   1714      3    137     49       1083.           1083.    
   1715      3    137     50       1083.           1083.    
   1716      3    137     51       1083.           1083.    
   1717      3    137     52       1083.           1083.    
   1718      3    137     53       1083.           1083.    
   1719      3    137     54       1083.           1084.    
   1720      3    137     55       1083.           1084.    
   1721      3    137     56       1084.           1084.    
   1722      3    137     57       1084.           1084.    
   1723      3    137     58       1084.           1084.    
   1724      3    137     59       1084.           1084.    
   1725      3    137     60       1084.           1084.    
   1726      3    137     61       1084.           1085.    
   1727      3    137     62       1084.           1085.    
   1728      3    137     63       1085.           1085.    
   1729      3    137     64       1085.           1085.    
   1730      3    137     65       1085.           1085.    
   1731      3    137     66       1085.           1085.    
   1732      3    137     67       1085.           1085.    
   1733      3    137     68       1085.           1086.    
   1734      3    137     69       1085.           1086.    
   1735      3    137     70       1086.           1086.    
   1736      3    137     71       1086.           1086.    
   1737      3    137     72       1086.           1086.    
   1738      3    137     73       1086.           1086.    
   1739      3    137     74       1086.           1086.    
   1740      3    137     75       1086.           1087.    
   1741      3    137     76       1086.           1087.    
   1742      3    137     77       1087.           1087.    
   1743      3    137     78       1087.           1087.    
   1744      3    137     79       1087.           1087.    
   1745      3    137     80       1087.           1087.    
   1746      3    137     81       1087.           1087.    
   1747      3    137     82       1087.           1087.    
   1748      3    137     83       1087.           1088.    
   1749      3    137     84       1088.           1088.    
   1750      3    137     85       1088.           1088.    
   1751      3    137     86       1088.           1088.    
   1752      3    137     87       1088.           1088.    
   1753      3    137     88       1088.           1088.    
   1754      3    137     89       1088.           1088.    
   1755      3    137     90       1088.           1089.    
   1756      3    137     91       1088.           1089.    
   1757      3    137     92       1089.           1089.    
   1758      3    137     93       1089.           1089.    
   1759      3    137     94       1089.           1089.    
   1760      3    137     95       1089.           1089.    
   1761      3    137     96       1089.           1089.    
   1762      3    137     97       1089.           1089.    
   1763      3    137     98       1089.           1090.    
   1764      3    137     99       1090.           1090.    
   1765      3    137    100       1090.           1090.    
   1766      3    137    101       1090.           1090.    
   1767      3    137    102       1090.           1090.    
   1768      3    137    103       1090.           1090.    
   1769      3    137    104       1090.           1090.    
   1770      3    137    105       1090.           1091.    
   1771      3    137    106       1090.           1091.    
   1772      3    137    107       1091.           1091.    
   1773      3    137    108       1091.           1091.    
   1774      3    137    109       1091.           1091.    
   1775      3    137    110       1091.           1091.    
   1776      3    137    111       1091.           1091.    
   1777      3    137    112       1091.           1091.    
   1778      3    137    113       1091.           1092.    
   1779      3    137    114       1091.           1092.    
   1780      3    137    115       1092.           1092.    
   1781      3    137    116       1092.           1092.    
   1782      3    137    117       1092.           1092.    
   1783      3    137    118       1092.           1092.    
   1784      3    137    119       1092.           1092.    
   1785      3    137    120       1092.           1092.    
   1786      3    137    121       1092.           1093.    
   1787      3    137    122       1092.           1093.    
   1788      3    137    123       1092.           1093.    
   1789      3    137    124       1093.           1093.    
   1790      3    137    125       1093.           1093.    
   1791      3    137    126       1093.           1093.    
   1792      3    137    127       1093.           1093.    
   1793      3    137    128       1093.           1093.    
   1794      3    137    129       1093.           1093.    
   1795      3    137    130       1093.           1094.    
   1796      3    137    131       1093.           1094.    
   1797      3    137    132       1093.           1094.    
   1798      3    137    133       1094.           1094.    
   1799      3    137    134       1094.           1094.    
   1800      3    137    135       1094.           1094.    
   1801      3    137    136       1094.           1094.    
   1802      3    137    137       1094.           1095.    
   1803      3    137    138       1094.           1095.    
   1804      3    137    139       1094.           1095.    
   1805      3    137    140       1095.           1095.    
   1806      3    137    141       1095.           1095.    
   1807      3    137    142       1095.           1095.    
   1808      3    137    143       1095.           1096.    
   1809      3    137    144       1095.           1096.    
   1810      3    137    145       1095.           1096.    
   1811      3    137    146       1095.           1096.    
   1812      3    137    147       1096.           1096.    
   1813      3    137    148       1096.           1096.    
   1814      3    137    149       1096.           1096.    
   1815      3    137    150       1096.           1097.    
   1816      3    137    151       1096.           1097.    
   1817      3    137    152       1096.           1097.    
   1818      3    137    153       1097.           1097.    
   1819      3    137    154       1097.           1097.    
   1820      3    137    155       1097.           1097.    
   1821      3    137    156       1097.           1097.    
   1822      3    137    157       1097.           1098.    
   1823      3    137    158       1097.           1098.    
   1824      3    137    159       1097.           1098.    
   1825      3    137    160       1098.           1098.    
   1826      3    137    161       1098.           1098.    
   1827      3    137    162       1098.           1098.    
   1828      3    137    163       1098.           1099.    
   1829      3    137    164       1098.           1099.    
   1830      3    137    165       1098.           1099.    
   1831      3    137    166       1098.           1099.    
   1832      3    137    167       1099.           1099.    
   1833      3    137    168       1099.           1099.    
   1834      3    137    169       1099.           1099.    
   1835      3    137    170       1099.           1099.    
   1836      3    137    171       1099.           1100.    


   1836 TIME-VARIANT SPECIFIED-HEAD CELLS

 REUSING STREAM SEGMENT DATA FROM LAST STRESS PERIOD

 SOLVING FOR HEAD 
                                                   Max.-Head-Change                         Max.-Flux-Residual
  Residual-Control   Outer-Iter.   Inner-Iter.     Column Row Layer    Maximum-Head-Change  Column Row Layer    Maximum-Flux-Residual          L2-NORM 
          0                 1          13            30  114     2       0.1279793447E+01      30  114    2         0.2798492760E+05      0.5236748444E+05
          0                 2           4           122   71     1       0.4534955908E-02      27   59    1         0.1544154094E+02      0.7615050055E+02

    ------------------------------------------------
       NWT REQUIRED            2 OUTER ITERATIONS 
       AND A TOTAL OF         17 INNER ITERATIONS.
    ------------------------------------------------

 NO OUTPUT CONTROL FOR STRESS PERIOD   12   TIME STEP    1

 SOLVING FOR HEAD 
                                                   Max.-Head-Change                         Max.-Flux-Residual
  Residual-Control   Outer-Iter.   Inner-Iter.     Column Row Layer    Maximum-Head-Change  Column Row Layer    Maximum-Flux-Residual          L2-NORM 
          0                 1          13            30  114     1       0.1626813027E+00       2  109    1         0.2011324987E+05      0.5010781386E+05
          0                 2           5           127   67     1       0.1209982680E-01      27   59    1         0.1851294733E+02      0.9296998917E+02

    ------------------------------------------------
       NWT REQUIRED            2 OUTER ITERATIONS 
       AND A TOTAL OF         18 INNER ITERATIONS.
    ------------------------------------------------

 NO OUTPUT CONTROL FOR STRESS PERIOD   12   TIME STEP    2

 SOLVING FOR HEAD 
                                                   Max.-Head-Change                         Max.-Flux-Residual
  Residual-Control   Outer-Iter.   Inner-Iter.     Column Row Layer    Maximum-Head-Change  Column Row Layer    Maximum-Flux-Residual          L2-NORM 
          0                 1          15           153  106     1       0.1280575060E+00       2  109    1         0.2380405165E+05      0.5626931423E+05
          0                 2           5           131   63     1       0.1327810145E-01      27   59    1         0.1989061792E+02      0.1012468176E+03

    ------------------------------------------------
       NWT REQUIRED            2 OUTER ITERATIONS 
       AND A TOTAL OF         20 INNER ITERATIONS.
    ------------------------------------------------

 NO OUTPUT CONTROL FOR STRESS PERIOD   12   TIME STEP    3

 SOLVING FOR HEAD 
                                                   Max.-Head-Change                         Max.-Flux-Residual
  Residual-Control   Outer-Iter.   Inner-Iter.     Column Row Layer    Maximum-Head-Change  Column Row Layer    Maximum-Flux-Residual          L2-NORM 
          0                 1          16           153  100     1       0.1430130081E+00       2  110    1         0.2809072569E+05      0.6380299003E+05
          0                 2           5           128   66     1       0.1880555921E-01      27   59    1         0.2231330360E+02      0.1167249140E+03

    ------------------------------------------------
       NWT REQUIRED            2 OUTER ITERATIONS 
       AND A TOTAL OF         21 INNER ITERATIONS.
    ------------------------------------------------

 NO OUTPUT CONTROL FOR STRESS PERIOD   12   TIME STEP    4

 SOLVING FOR HEAD 
                                                   Max.-Head-Change                         Max.-Flux-Residual
  Residual-Control   Outer-Iter.   Inner-Iter.     Column Row Layer    Maximum-Head-Change  Column Row Layer    Maximum-Flux-Residual          L2-NORM 
          0                 1          18           153   98     1       0.1600142341E+00       2  109    1         0.3300872445E+05      0.7288364570E+05
          0                 2           6           130   64     1       0.2161893943E-01      27   59    1         0.2541990248E+02      0.1328889126E+03

    ------------------------------------------------
       NWT REQUIRED            2 OUTER ITERATIONS 
       AND A TOTAL OF         24 INNER ITERATIONS.
    ------------------------------------------------

 OUTPUT CONTROL FOR STRESS PERIOD   12   TIME STEP    5
    SAVE HEAD FOR ALL LAYERS
    SAVE BUDGET
 UBDSV1 SAVING "         STORAGE" ON UNIT  53 AT TIME STEP  5, STRESS PERIOD  12
 UBDSV2 SAVING "   CONSTANT HEAD" ON UNIT  53 AT TIME STEP  5, STRESS PERIOD  12
 UBDSV1 SAVING "FLOW RIGHT FACE " ON UNIT  53 AT TIME STEP  5, STRESS PERIOD  12
 UBDSV1 SAVING "FLOW FRONT FACE " ON UNIT  53 AT TIME STEP  5, STRESS PERIOD  12
 UBDSV1 SAVING "FLOW LOWER FACE " ON UNIT  53 AT TIME STEP  5, STRESS PERIOD  12
 UBDSV4 SAVING "           WELLS" ON UNIT  53 AT TIME STEP  5, STRESS PERIOD  12
 UBDSV3 SAVING "        RECHARGE" ON UNIT  53 AT TIME STEP  5, STRESS PERIOD  12
 UBDSV4 SAVING "  STREAM LEAKAGE" ON UNIT  53 AT TIME STEP  5, STRESS PERIOD  12




 HEAD WILL BE SAVED ON UNIT   51 AT END OF TIME STEP    5, STRESS PERIOD   12
1
  VOLUMETRIC BUDGET FOR ENTIRE MODEL AT END OF TIME STEP    5, STRESS PERIOD  12
  ------------------------------------------------------------------------------

     CUMULATIVE VOLUMES      L**3       RATES FOR THIS TIME STEP      L**3/T
     ------------------                 ------------------------

           IN:                                      IN:
           ---                                      ---
             STORAGE =   127666400.0000               STORAGE =           0.0000
       CONSTANT HEAD =   290244448.0000         CONSTANT HEAD =      951330.0000
               WELLS =           0.0000                 WELLS =           0.0000
            RECHARGE =   328541152.0000              RECHARGE =      937820.6250
      STREAM LEAKAGE =      201052.5625        STREAM LEAKAGE =           0.0000

            TOTAL IN =   746652992.0000              TOTAL IN =     1889150.6250

          OUT:                                     OUT:
          ----                                     ----
             STORAGE =   240449344.0000               STORAGE =      678251.8125
       CONSTANT HEAD =   137778960.0000         CONSTANT HEAD =      294895.4062
               WELLS =   118240904.0000                 WELLS =       63049.9297
            RECHARGE =           0.0000              RECHARGE =           0.0000
      STREAM LEAKAGE =   250253424.0000        STREAM LEAKAGE =      852885.5000

           TOTAL OUT =   746722624.0000             TOTAL OUT =     1889082.7500

            IN - OUT =      -69632.0000              IN - OUT =          67.8750

 PERCENT DISCREPANCY =          -0.01     PERCENT DISCREPANCY =           0.00






         TIME SUMMARY AT END OF TIME STEP    5 IN STRESS PERIOD   12
                    SECONDS     MINUTES      HOURS       DAYS        YEARS
                    -----------------------------------------------------------
   TIME STEP LENGTH 7.46336E+05  12439.      207.32      8.6381     2.36500E-02
 STRESS PERIOD TIME 2.67840E+06  44640.      744.00      31.000     8.48734E-02
         TOTAL TIME 3.15360E+07 5.25600E+05  8760.0      365.00     0.99932    
1

 Run end date and time (yyyy/mm/dd hh:mm:ss): 2019/07/01  9:00:15
 Elapsed run time: 18.604 Seconds

